34

O 0.0207 1.6318 -0.5809 
C 0.2372 1.1418 0.737 
C 0.0343 -0.3684 0.7358 
C -1.4315 -0.7477 0.4843 
O -1.8838 -0.395 -0.7951 
C 0.9589 -1.0585 -0.2831 
O 2.2648 -0.5365 -0.298 
H 0.0745 2.5962 -0.5816 
H -0.4695 1.6118 1.4497 
H 1.2657 1.3751 1.0695 
H 0.3043 -0.7105 1.7519 
H -2.0597 -0.2855 1.2772 
H -1.5534 -1.8414 0.5792 
H -1.5064 0.4744 -1.011 
H 0.4925 -1.0039 -1.283 
H 1.0456 -2.1267 -0.0231 
H 2.2502 0.2757 -0.8221 
O 0.5053 -4.8831 -5.3046 
C 1.8182 -4.4186 -5.5952 
C 2.766 -4.9269 -4.5158 
C 2.4841 -4.2755 -3.155 
O 1.2324 -4.6187 -2.6246 
C 2.7205 -6.4616 -4.4059 
O 2.6802 -7.1117 -5.6524 
H -0.1193 -4.5093 -5.9396 
H 1.8439 -3.3109 -5.6217 
H 2.1486 -4.793 -6.5819 
H 3.7795 -4.6217 -4.8353 
H 2.5909 -3.1733 -3.2592 
H 3.2446 -4.6009 -2.4231 
H 0.5957 -4.6323 -3.359 
H 1.8611 -6.7492 -3.7742 
H 3.6319 -6.8118 -3.8931 
H 1.7675 -7.0813 -5.9698 
