17

C          0.98709        0.00427       -0.06710
C          2.52247       -0.00500       -0.07191
C          3.04279        0.23046        1.35151
C          3.06226       -1.30821       -0.67816
O          2.61277       -2.45434        0.04624
N          3.05173        1.12877       -0.94781
O          2.23644        1.86904       -1.51099
O          4.28326        1.23896       -1.03794
H          0.58954       -0.79958        0.56298
H          0.57931       -0.13757       -1.07492
H          0.58971        0.94847        0.32362
H          2.66012       -0.52811        2.04340
H          2.73352        1.21131        1.73106
H          4.13729        0.19188        1.39631
H          4.15806       -1.33718       -0.70137
H          2.71724       -1.42463       -1.71224
H          3.16478       -2.54599        0.84289
