  36

 C          0.3048000000        1.4343000000       -0.4256000000
 C          0.2688000000       -0.0294000000        0.0173000000
 C          1.4946000000       -0.7741000000       -0.5316000000
 N          0.2056000000       -0.0529000000        1.4824000000
 C         -1.0188000000       -0.7219000000       -0.4950000000
 N         -2.2728000000       -0.1550000000       -0.0474000000
 H          0.2848000000        1.5149000000       -1.5265000000
 H          1.2248000000        1.9326000000       -0.0688000000
 H         -0.5569000000        1.9850000000       -0.0134000000
 H          1.5308000000       -0.7464000000       -1.6356000000
 H          1.4779000000       -1.8353000000       -0.2218000000
 H          2.4290000000       -0.3238000000       -0.1496000000
 H          0.3068000000       -1.0094000000        1.8268000000
 H          0.9670000000        0.4922000000        1.8881000000
 H         -0.9792000000       -1.7809000000       -0.1697000000
 H         -1.0066000000       -0.7420000000       -1.5995000000
 H         -2.4603000000        0.7316000000       -0.5137000000
 H         -2.2003000000        0.0428000000        0.9527000000
 C         -6.6347000000        0.8875000000        4.1797000000
 C         -5.2418000000        0.2899000000        3.9728000000
 C         -5.2566000000       -1.2067000000        4.3168000000
 N         -4.8469000000        0.5441000000        2.5834000000
 C         -4.2025000000        1.0079000000        4.8696000000
 N         -4.0450000000        2.4304000000        4.6552000000
 H         -6.9569000000        0.7850000000        5.2306000000
 H         -7.3825000000        0.3749000000        3.5473000000
 H         -6.6417000000        1.9563000000        3.9087000000
 H         -5.5579000000       -1.3836000000        5.3650000000
 H         -4.2535000000       -1.6498000000        4.1754000000
 H         -5.9630000000       -1.7510000000        3.6637000000
 H         -3.9778000000        0.0530000000        2.3659000000
 H         -5.5550000000        0.1985000000        1.9349000000
 H         -3.2221000000        0.5191000000        4.6997000000
 H         -4.4520000000        0.8291000000        5.9308000000
 H         -4.8447000000        2.9458000000        5.0203000000
 H         -4.0114000000        2.6045000000        3.6486000000
