  8

 C          1.0630200000       -0.0523500000        0.0614200000
 C          2.5750900000       -0.0523500000        0.0614200000
 H          0.6787500000       -0.9744300000       -0.3847900000
 H          0.6787400000        0.7951100000       -0.5140300000
 H          0.6787400000        0.0222600000        1.0830600000
 H          2.9593600000       -0.1269700000       -0.9602300000
 H          2.9593600000       -0.8998200000        0.6368600000
 H          2.9593600000        0.8697200000        0.5076200000
