17

C          0.97353        0.06301        0.09413
C          2.50970        0.05832        0.08511
C          3.03057       -0.44084        1.43863
C          3.04974       -0.77427       -1.08606
O          2.60079       -2.12868       -1.02332
N          3.03810        1.47615       -0.11580
O          2.22178        2.39878       -0.24036
O          4.26903        1.61866       -0.13890
H          0.57734       -0.94726        0.24416
H          0.56609        0.43768       -0.85245
H          0.57669        0.69050        0.90022
H          2.64887       -1.44258        1.66423
H          2.72164        0.22364        2.25349
H          4.12532       -0.49608        1.45733
H          4.14574       -0.78760       -1.12071
H          2.70500       -0.36432       -2.04277
H          3.14972       -2.60100       -0.37271
