34

C 0.0744 1.5584 -0.0343 
C 0.2256 0.0673 0.2146 
C -0.0008 -0.2949 1.6819 
C -0.7066 -0.7513 -0.7133 
O -2.0552 -0.4574 -0.4845 
N 1.6441 -0.3765 -0.1364 
O 2.4313 0.4516 -0.5282 
O 1.8892 -1.5565 0.0005 
H -0.977 1.8309 0.1497 
H 0.3246 1.8179 -1.0743 
H 0.7234 2.146 0.6338 
H -1.0157 0.0169 1.9788 
H 0.7151 0.2357 2.3318 
H 0.1121 -1.3786 1.846 
H -0.4839 -1.8262 -0.588 
H -0.4924 -0.4794 -1.7607 
H -2.3724 -0.9696 0.2704 
C 5.1138 -1.3875 -4.2007 
C 4.1348 -2.0028 -3.2153 
C 2.7221 -1.4458 -3.387 
C 4.1415 -3.549 -3.3129 
O 3.7427 -3.991 -4.579 
N 4.5659 -1.6815 -1.7859 
O 5.5552 -1.0101 -1.6149 
O 3.8737 -2.1353 -0.8992 
H 4.8225 -1.7039 -5.2149 
H 6.1421 -1.7309 -4.0106 
H 5.1016 -0.2876 -4.1468 
H 2.3747 -1.6513 -4.4129 
H 2.7115 -0.3523 -3.2435 
H 2.0246 -1.9016 -2.666 
H 3.5104 -3.9623 -2.5057 
H 5.1723 -3.9098 -3.1573 
H 2.7781 -4.0016 -4.6268 
