20

C          1.04837       -0.09442       -0.07176
C          2.56706        0.04779       -0.06909
C          3.10464        1.50092       -0.05354
C          2.61045        2.26921       -1.29612
C          2.65516        2.26986        1.19912
C          4.64169        1.46698       -0.09769
O          5.22214        0.86212        0.96448
O          5.32028        1.93500       -1.00054
H          0.77461       -1.15445       -0.07020
H          0.59928        0.35634       -0.96110
H          0.59909        0.35954        0.81624
H          2.96707       -0.47478       -0.94767
H          2.94732       -0.50382        0.79981
H          1.52302        2.39385       -1.29618
H          2.89168        1.74916       -2.21947
H          3.04974        3.27295       -1.34114
H          1.57267        2.43355        1.20657
H          3.13707        3.25308        1.24885
H          2.91333        1.73554        2.11967
H          4.60476        0.51649        1.63312
