  20

 C          1.0483700000       -0.0944200000       -0.0717600000
 C          2.5670600000        0.0477900000       -0.0690900000
 C          3.1046400000        1.5009200000       -0.0535400000
 C          2.6104500000        2.2692100000       -1.2961200000
 C          2.6551600000        2.2698600000        1.1991200000
 C          4.6416900000        1.4669800000       -0.0976900000
 O          5.2221400000        0.8621200000        0.9644800000
 O          5.3202800000        1.9350000000       -1.0005400000
 H          0.7746100000       -1.1544500000       -0.0702000000
 H          0.5992800000        0.3563400000       -0.9611000000
 H          0.5990900000        0.3595400000        0.8162400000
 H          2.9670700000       -0.4747800000       -0.9476700000
 H          2.9473200000       -0.5038200000        0.7998100000
 H          1.5230200000        2.3938500000       -1.2961800000
 H          2.8916800000        1.7491600000       -2.2194700000
 H          3.0497400000        3.2729500000       -1.3411400000
 H          1.5726700000        2.4335500000        1.2065700000
 H          3.1370700000        3.2530800000        1.2488500000
 H          2.9133300000        1.7355400000        2.1196700000
 H          4.6047600000        0.5164900000        1.6331200000
