21

O       -0.180798    2.373206   -0.179375 
C        0.301781    1.238523   -0.856637 
C        0.025273   -0.003539   -0.005779 
C        0.391126   -1.279948   -0.789668 
O        1.777573   -1.387636   -1.073202 
C        0.841513    0.071069    1.307236 
O        2.210800    0.262103    1.086828 
C       -1.465486   -0.047257    0.336974 
O       -2.202980   -0.176513   -0.816079 
F       -1.718148   -1.128933    1.165762 
H        0.194245    3.166817   -0.578867 
H        1.394983    1.308922   -1.010173 
H       -0.193808    1.123666   -1.842296 
H       -0.204891   -1.342373   -1.717614 
H        0.138503   -2.157487   -0.175947 
H        1.993326   -0.837861   -1.837707 
H        0.646695   -0.847286    1.896271 
H        0.491167    0.929988    1.902082 
H        2.496252   -0.441542    0.479160 
H       -1.756644    0.847942    0.912979 
H       -3.138496   -0.032767   -0.617885 
