19

O          0.99857       -0.18009        0.05475
C          2.42163       -0.16041        0.01418
C          2.94388        1.29266        0.00117
C          2.39315        2.00211       -1.26296
O          2.85011        3.34881       -1.32889
C          2.39254        2.09062        1.20916
Br         2.91708        1.38804        2.95312
C          4.48700        1.33641        0.02929
Br         5.34711        0.43250       -1.47462
H          0.72527       -1.11632        0.05740
H          2.72290       -0.70427       -0.88630
H          2.79555       -0.71843        0.87788
H          1.29537        2.01363       -1.27251
H          2.70607        1.49690       -2.18257
H          2.08556        3.92919       -1.17370
H          1.29796        2.11356        1.22219
H          2.75049        3.12574        1.21000
H          4.89833        0.82902        0.90595
H          4.87229        2.36132        0.01492
