  19

 O          0.9985700000       -0.1800900000        0.0547500000
 C          2.4216300000       -0.1604100000        0.0141800000
 C          2.9438800000        1.2926600000        0.0011700000
 C          2.3931500000        2.0021100000       -1.2629600000
 O          2.8501100000        3.3488100000       -1.3288900000
 C          2.3925400000        2.0906200000        1.2091600000
 Br         2.9170800000        1.3880400000        2.9531200000
 C          4.4870000000        1.3364100000        0.0292900000
 Br         5.3471100000        0.4325000000       -1.4746200000
 H          0.7252700000       -1.1163200000        0.0574000000
 H          2.7229000000       -0.7042700000       -0.8863000000
 H          2.7955500000       -0.7184300000        0.8778800000
 H          1.2953700000        2.0136300000       -1.2725100000
 H          2.7060700000        1.4969000000       -2.1825700000
 H          2.0855600000        3.9291900000       -1.1737000000
 H          1.2979600000        2.1135600000        1.2221900000
 H          2.7504900000        3.1257400000        1.2100000000
 H          4.8983300000        0.8290200000        0.9059500000
 H          4.8722900000        2.3613200000        0.0149200000
