26

C -0.3867 -1.2523 -0.0248 
C -0.2053 0.2451 -0.1485 
C -0.6049 0.7979 -1.5055 
Cl -1.0978 1.0711 1.167 
N 1.2859 0.5918 0.0992 
O 1.9148 -0.166 0.79 
O 1.6912 1.6196 -0.3776 
H -0.0606 -1.6186 0.9536 
H 0.2013 -1.7594 -0.804 
H -1.4491 -1.4989 -0.1622 
H -0.5164 1.8899 -1.53 
H -1.6466 0.5144 -1.7056 
H 0.0345 0.3674 -2.2928 
C 0.6333 2.4481 -5.3592 
C 0.9898 1.2605 -6.2269 
C 0.7137 -0.0803 -5.569 
Cl 0.1429 1.3877 -7.8004 
N 2.4991 1.3301 -6.5769 
O 3.0075 2.4203 -6.5854 
O 3.039 0.2933 -6.8623 
H 0.8738 3.3948 -5.8529 
H 1.1918 2.393 -4.4132 
H -0.4436 2.4235 -5.1399 
H 0.9275 -0.9089 -6.2536 
H -0.3442 -0.1154 -5.2772 
H 1.3324 -0.1925 -4.6642 
