  32

 C          0.4071000000        1.4146000000        0.1307000000
 C          0.3207000000       -0.0420000000       -0.3260000000
 C          1.5861000000       -0.8159000000        0.0459000000
 C         -0.9273000000       -0.7489000000        0.2375000000
 N         -2.2202000000       -0.1759000000       -0.0880000000
 H          1.2939000000        1.9164000000       -0.2941000000
 H          0.4812000000        1.4764000000        1.2329000000
 H         -0.4802000000        1.9917000000       -0.1829000000
 H          0.2281000000       -0.0479000000       -1.4306000000
 H          1.5365000000       -1.8617000000       -0.3060000000
 H          1.7251000000       -0.8370000000        1.1428000000
 H          2.4857000000       -0.3533000000       -0.3964000000
 H         -0.8446000000       -0.7944000000        1.3403000000
 H         -0.9231000000       -1.7989000000       -0.1100000000
 H         -2.3322000000       -0.0688000000       -1.0963000000
 H         -2.3415000000        0.7439000000        0.3328000000
 C         -1.5249000000       -3.2458000000        2.2676000000
 C         -1.5415000000       -2.4008000000        3.5418000000
 C         -0.2294000000       -1.6352000000        3.7168000000
 C         -2.7387000000       -1.4310000000        3.5739000000
 N         -4.0665000000       -2.0104000000        3.4901000000
 H         -0.6747000000       -3.9499000000        2.2641000000
 H         -1.4332000000       -2.6029000000        1.3718000000
 H         -2.4478000000       -3.8426000000        2.1642000000
 H         -1.6548000000       -3.0875000000        4.4046000000
 H         -0.2294000000       -1.0443000000        4.6500000000
 H         -0.0685000000       -0.9349000000        2.8761000000
 H          0.6354000000       -2.3206000000        3.7513000000
 H         -2.6326000000       -0.7051000000        2.7451000000
 H         -2.6846000000       -0.8371000000        4.5053000000
 H         -4.2034000000       -2.7228000000        4.2073000000
 H         -4.2291000000       -2.4510000000        2.5860000000
