23

C          0.92080       -0.04333       -0.18047
C          2.42905       -0.08826        0.03694
C          2.91433       -0.35084        1.49450
C          2.39890        0.75303        2.43597
C          2.39725       -1.71329        1.99156
C          4.47242       -0.34527        1.45770
C          5.18523       -0.58426        2.78392
H          0.70723        0.14543       -1.23805
H          0.45094        0.75954        0.39377
H          0.44331       -0.99072        0.08323
H          2.84652        0.86459       -0.31452
H          2.83991       -0.86332       -0.62354
H          1.30489        0.77777        2.47054
H          2.74779        1.74012        2.11352
H          2.73597        0.59710        3.46576
H          1.30336       -1.74758        2.01458
H          2.73371       -1.92670        3.01125
H          2.74577       -2.52632        1.34533
H          4.81890        0.61772        1.05996
H          4.81775       -1.10990        0.74916
H          4.94316        0.18651        3.52041
H          6.26917       -0.55694        2.62891
H          4.94214       -1.56307        3.20576
