42

O       -5.169425    0.917503    0.419634 
C       -4.026088    0.621256    1.195458 
C       -3.006245   -0.271261    0.456970 
C       -1.808113   -0.495875    1.394104 
O       -0.849836   -1.395128    0.888407 
C       -3.635758   -1.651860    0.142606 
O       -4.863654   -1.590450   -0.552093 
C       -2.579803    0.373100   -0.883958 
O       -3.627354    0.598597   -1.735042 
Cl       -1.651624    1.946869   -0.582053 
H       -5.584891    0.060378    0.202684 
H       -4.317687    0.124954    2.142591 
H       -3.563253    1.587097    1.452471 
H       -2.175818   -0.932207    2.337885 
H       -1.349840    0.481527    1.636682 
H       -0.432611   -1.020413    0.072106 
H       -3.851710   -2.160376    1.096814 
H       -2.903428   -2.277347   -0.399706 
H       -4.683962   -1.223949   -1.433916 
H       -1.843267   -0.245687   -1.414368 
H       -4.336349    1.038897   -1.211432 
O        0.587331   -0.320181   -1.055645 
C        1.839492   -0.935575   -1.280693 
C        2.928364   -0.673075   -0.216249 
C        2.583037   -1.263650    1.167516 
O        1.548291   -0.587272    1.847393 
C        4.213356   -1.369065   -0.723606 
O        4.795394   -0.730189   -1.827101 
C        3.131968    0.853617   -0.134953 
O        2.046359    1.519014    0.357869 
Cl        4.655790    1.246970    0.842338 
H        0.706382    0.628546   -0.856246 
H        2.237214   -0.632983   -2.267067 
H        1.637774   -2.019108   -1.322073 
H        3.478162   -1.193997    1.807735 
H        2.340465   -2.337818    1.051794 
H        0.678833   -1.008127    1.655282 
H        3.958640   -2.393435   -1.046823 
H        4.931778   -1.459529    0.111204 
H        5.341864   -0.000086   -1.501463 
H        3.364029    1.264138   -1.126666 
H        1.718734    1.003416    1.137126 
