36

C       -3.980884   -0.317101   -0.389677 
C       -2.489922   -0.072349   -0.117630 
N       -1.661713   -0.358065   -1.294718 
C       -2.296665    1.406263    0.274926 
O       -1.050878    1.697785    0.825861 
C       -2.045165   -0.995408    1.036109 
O       -0.665543   -1.157044    1.185400 
H       -4.588577   -0.207446    0.526408 
H       -4.141282   -1.335515   -0.785922 
H       -4.365273    0.402129   -1.135841 
H       -2.029674    0.128177   -2.114076 
H       -1.649149   -1.355627   -1.512070 
H       -3.054606    1.663047    1.036249 
H       -2.509755    2.036609   -0.617475 
H       -0.365948    1.623874    0.120697 
H       -2.450539   -2.008328    0.857116 
H       -2.506298   -0.622917    1.972906 
H       -0.189133   -0.299005    1.298895 
C        3.980873    0.317129    0.389719 
C        2.489920    0.072357    0.117646 
N        1.661693    0.358000    1.294739 
C        2.045156    0.995454   -1.036058 
O        0.665529    1.156981   -1.185425 
C        2.296691   -1.406240   -0.274973 
O        1.050906   -1.697754   -0.825923 
H        4.141247    1.335535    0.785995 
H        4.588580    0.207509   -0.526361 
H        4.365265   -0.402115    1.135869 
H        1.649070    1.355554    1.512122 
H        2.029670   -0.128249    2.114085 
H        2.506378    0.623063   -1.972851 
H        2.450434    2.008397   -0.856972 
H        0.189197    0.298903   -1.298938 
H        2.509785   -2.036621    0.617402 
H        3.054636   -1.662983   -1.036305 
H        0.365973   -1.623902   -0.120759 
