21

C          1.08058        0.01920       -0.07034
C          2.62348        0.03458       -0.00557
C          3.09227        1.50321        0.03789
C          3.10998       -0.74704        1.24555
N          2.62501       -0.20046        2.51661
C          3.15450       -0.65914       -1.29225
N          4.61247       -0.72473       -1.38046
H          0.63215        0.51945        0.79479
H          0.69687       -1.00698       -0.09947
H          0.71910        0.53467       -0.96762
H          2.63074        2.05151        0.86631
H          2.82104        2.02783       -0.88550
H          4.17793        1.57832        0.16021
H          4.20516       -0.76578        1.28370
H          2.77633       -1.78880        1.17797
H          3.00779        0.73311        2.65010
H          3.00015       -0.76283        3.27895
H          2.77983       -0.13566       -2.17981
H          2.76656       -1.68377       -1.34371
H          4.99915        0.21743       -1.42941
H          4.87504       -1.17723       -2.25568
