21

C       -0.592400    1.693246   -0.483092
C       -0.002441    0.364390    0.000999
C       -0.008798    0.332414    1.536016
C       -0.830957   -0.810207   -0.557237
N       -2.193792   -0.833641   -0.036430
C        1.443171    0.247075   -0.521832
N        2.137152   -0.937904   -0.037825
H       -1.663299    1.745395   -0.226625
H       -0.500114    1.790538   -1.580679
H       -0.074963    2.554415   -0.022392
H       -1.020933    0.536216    1.926003
H        0.666067    1.104569    1.950114
H        0.314441   -0.651715    1.921740
H       -0.264639   -1.745242   -0.371808
H       -0.895150   -0.688786   -1.654132
H       -2.215890   -1.236506    0.900091
H       -2.788518   -1.420327   -0.619168
H        1.973394    1.196149   -0.279692
H        1.406991    0.186548   -1.624914
H        2.426172   -0.822103    0.932947
H        2.981470   -1.109846   -0.580828
