  46

 N         -1.6917000000        1.4116000000       -0.8609000000
 C         -0.4843000000        0.6118000000       -1.0712000000
 C         -0.0318000000       -0.1029000000        0.2188000000
 C          0.8136000000       -1.3351000000       -0.1502000000
 N          2.0100000000       -0.9901000000       -0.9255000000
 C          0.7911000000        0.8527000000        1.1078000000
 O          1.9185000000        1.3805000000        0.4758000000
 C         -1.2701000000       -0.5854000000        1.0111000000
 O         -2.2748000000       -1.1100000000        0.1944000000
 H         -1.9729000000        1.8672000000       -1.7285000000
 H         -1.5212000000        2.1541000000       -0.1815000000
 H          0.3665000000        1.2053000000       -1.4585000000
 H         -0.7372000000       -0.1500000000       -1.8302000000
 H          0.1575000000       -2.0710000000       -0.6585000000
 H          1.1606000000       -1.8056000000        0.7868000000
 H          1.7720000000       -0.7546000000       -1.8894000000
 H          2.6581000000       -1.7758000000       -0.9631000000
 H          1.0582000000        0.3077000000        2.0422000000
 H          0.1614000000        1.7070000000        1.4224000000
 H          2.3280000000        0.6387000000       -0.0225000000
 H         -1.6552000000        0.2558000000        1.6249000000
 H         -0.9711000000       -1.3795000000        1.7176000000
 H         -2.5987000000       -0.3374000000       -0.3098000000
 N          3.8267000000        0.5241000000       -3.9019000000
 C          4.2084000000       -0.1712000000       -5.1318000000
 C          5.5022000000       -0.9924000000       -4.9545000000
 C          5.5369000000       -2.1220000000       -5.9994000000
 N          5.4987000000       -1.6207000000       -7.3774000000
 C          6.7433000000       -0.0897000000       -5.1140000000
 O          6.8048000000        0.5730000000       -6.3412000000
 C          5.5252000000       -1.6345000000       -3.5470000000
 O          4.2809000000       -2.1288000000       -3.1481000000
 H          2.9668000000        1.0529000000       -4.0438000000
 H          4.5435000000        1.1974000000       -3.6285000000
 H          4.3440000000        0.5128000000       -5.9919000000
 H          3.3802000000       -0.8602000000       -5.3762000000
 H          4.7213000000       -2.8377000000       -5.7693000000
 H          6.4890000000       -2.6691000000       -5.8811000000
 H          4.5642000000       -1.2971000000       -7.6284000000
 H          5.7461000000       -2.3557000000       -8.0388000000
 H          7.6480000000       -0.7154000000       -4.9364000000
 H          6.7477000000        0.6843000000       -4.3227000000
 H          6.5378000000       -0.0832000000       -7.0227000000
 H          5.9099000000       -0.8908000000       -2.8180000000
 H          6.2346000000       -2.4806000000       -3.5376000000
 H          3.7314000000       -1.3277000000       -3.0374000000
