22

C       -1.868464   -1.239233   -0.414159
C       -1.895098    0.284719   -0.504892
C       -1.900931    0.964659    0.861977
H       -1.851069   -1.703449   -1.415376
H       -2.757636   -1.621815    0.118825
H       -0.975923   -1.589979    0.134490
H       -2.785105    0.603622   -1.077522
H       -1.020627    0.634128   -1.083377
H       -2.792184    0.675378    1.447657
H       -1.902648    2.064273    0.766933
H       -1.010497    0.680185    1.451070
C        1.901014   -0.964654    0.861960
C        1.895125   -0.284720   -0.504912
C        1.868355    1.239229   -0.414182
H        1.902817   -2.064269    0.766921
H        1.010560   -0.680246    1.451056
H        2.792246   -0.675301    1.447637
H        1.020692   -0.634217   -1.083403
H        2.785165   -0.603544   -1.077535
H        2.757503    1.621889    0.118786
H        0.975794    1.589896    0.134484
H        1.850904    1.703444   -1.415399
