34

C 1.2577 0.921 0.0 
C 0.0288 -0.0065 0.0 
C 0.0555 -0.8838 -1.2578 
C 0.0555 -0.8837 1.2579 
C -1.197 0.918 0.0 
Br -2.9273 0.0128 0.0 
H 1.2742 1.5694 0.8943 
H 1.2742 1.5694 -0.8943 
H 2.1866 0.3244 0.0 
H 0.9736 -1.4968 -1.2786 
H 0.038 -0.2672 -2.1746 
H -0.811 -1.5656 -1.2895 
H 0.038 -0.2671 2.1746 
H 0.9736 -1.4967 1.2787 
H -0.811 -1.5655 1.2896 
H -1.2049 1.5589 -0.8946 
H -1.2049 1.5589 0.8945 
C -4.0528 1.1682 -7.1607 
C -4.504 1.0046 -5.6978 
C -5.0336 -0.4192 -5.4865 
C -3.3139 1.2702 -4.7674 
C -5.6143 2.0426 -5.4806 
Br -6.3926 2.0725 -3.6899 
H -3.6624 2.1839 -7.3517 
H -4.8851 0.9828 -7.8631 
H -3.2485 0.4492 -7.3951 
H -4.2446 -1.1589 -5.7085 
H -5.8916 -0.6282 -6.1507 
H -5.3635 -0.5738 -4.4454 
H -2.9185 2.2924 -4.9074 
H -2.4964 0.5584 -4.9774 
H -3.6004 1.1581 -3.7081 
H -6.4597 1.8608 -6.1614 
H -5.2366 3.0622 -5.6499 
