  10

 F         -0.8115000000       -0.6008000000        0.8435000000
 C          0.0000000000        0.0000000000        0.0000000000
 F          0.3102000000       -0.8273000000       -0.9748000000
 F         -0.5943000000        1.0626000000       -0.4989000000
 F          1.0956000000        0.3656000000        0.6301000000
 F          2.2081000000        0.3518000000       -1.0993000000
 C          2.1727000000        1.6132000000       -1.4716000000
 F          1.2450000000        2.2466000000       -0.7868000000
 F          3.3428000000        2.1704000000       -1.2446000000
 F          1.8950000000        1.6840000000       -2.7557000000
