34

C       -3.553142    0.149419   -1.261297
C       -2.698359    0.000024   -0.000024
C       -3.553174   -0.149320    1.261234
C       -1.726842   -1.185917   -0.118039
O       -1.113572   -1.209649   -1.290051
O       -1.478333   -1.957953    0.780041
C       -1.726775    1.185911    0.118011
O       -1.113485    1.209571    1.290015
O       -1.478243    1.957962   -0.780048
H       -4.186104   -0.743557   -1.395935
H       -2.928129    0.282463   -2.155154
H       -4.209720    1.029443   -1.163879
H       -4.186082    0.743696    1.395862
H       -2.928186   -0.282405    2.155102
H       -4.209807   -1.029301    1.163802
H       -0.343290   -1.826112   -1.258508
H       -0.343187    1.826015    1.258500
C        3.553150    0.148840    1.261354
C        2.698360   -0.000025    0.000023
C        3.553168   -0.148946   -1.261289
C        1.726768   -1.185952    0.117589
O        1.113469   -1.210065    1.289579
O        1.478245   -1.957659   -0.780769
C        1.726850    1.185965   -0.117563
O        1.113588    1.210132   -1.289571
O        1.478328    1.957665    0.780803
H        4.186053   -0.744228    1.395656
H        2.928144    0.281588    2.155260
H        4.209786    1.028857    1.164268
H        4.186137    0.744077   -1.395575
H        2.928174   -0.281649   -2.155210
H        4.209739   -1.029010   -1.164189
H        0.343169   -1.826495    1.257817
H        0.343310    1.826588   -1.257808
