38

C       -2.173870   -0.547724   -1.361582
C       -2.929788   -0.325594   -0.044813
C       -4.396497   -0.735962   -0.223751
C       -2.291722   -1.170075    1.064568
C       -2.888765    1.178681    0.340626
N       -1.612363    1.761754    0.694180
H       -2.156800   -1.618794   -1.634802
H       -1.130768   -0.194215   -1.288292
H       -2.656307    0.003579   -2.189476
H       -4.892873   -0.110946   -0.988556
H       -4.961122   -0.624597    0.719944
H       -4.480576   -1.790169   -0.544685
H       -1.221747   -0.925781    1.185866
H       -2.363874   -2.248523    0.834623
H       -2.793108   -0.998316    2.035337
H       -3.581058    1.335514    1.190091
H       -3.310985    1.756668   -0.504248
H       -0.896748    1.623741   -0.026374
H       -1.254278    1.366658    1.561991
C        3.396539   -0.846556   -1.262463
C        3.009565   -0.235444    0.090529
C        3.216691   -1.275155    1.199235
C        3.882447    0.994387    0.371861
C        1.512281    0.159525    0.088734
N        1.061557    1.139802   -0.881481
H        4.450673   -1.176165   -1.259285
H        3.284938   -0.117967   -2.085499
H        2.769039   -1.725849   -1.496843
H        2.943814   -0.863774    2.187923
H        4.271775   -1.598321    1.248682
H        2.596856   -2.173236    1.024677
H        3.776393    1.758471   -0.419084
H        4.950759    0.717802    0.417508
H        3.613802    1.462052    1.336689
H        1.247879    0.539493    1.093329
H        0.909025   -0.755638   -0.059464
H        1.200061    0.828707   -1.841333
H        1.519583    2.042207   -0.765278
