  17

 C          1.0419100000       -0.0929300000       -0.0677700000
 C          2.5796500000       -0.0729400000       -0.1301900000
 C          3.1334600000        0.8020700000        1.0024600000
 C          3.0797100000       -1.4988900000        0.1264900000
 O          4.2588400000       -1.8447200000       -0.4331500000
 O          2.4915600000       -2.2856500000        0.8602500000
 C          3.0893500000        0.4960000000       -1.4455700000
 O          2.3710300000        1.4806100000       -2.0165600000
 O          4.1602900000        0.1451000000       -1.9318400000
 H          0.6787600000       -0.5802400000        0.8446700000
 H          0.6219800000       -0.6355700000       -0.9222200000
 H          0.6129000000        0.9145100000       -0.0629600000
 H          2.8100200000        0.4365500000        1.9840300000
 H          2.8049400000        1.8426400000        0.9023000000
 H          4.2302700000        0.8030000000        1.0015200000
 H          4.6428100000       -1.1779000000       -1.0543900000
 H          1.5511400000        1.7640800000       -1.5741900000
