42

C       -2.780257    2.267020   -0.158410
C       -2.471445    0.917245   -0.803202
C       -2.574326   -0.322470    0.110739
C       -1.712558   -0.152232    1.369380
C       -4.029126   -0.588729    0.517091
C       -2.078763   -1.553933   -0.679016
O       -0.750283   -1.481784   -1.111107
H       -2.715223    3.073510   -0.909256
H       -2.063907    2.510609    0.644946
H       -3.795819    2.302156    0.273479
H       -1.450686    0.944798   -1.222990
H       -3.149038    0.765052   -1.664979
H       -2.119341    0.626337    2.037560
H       -0.680256    0.135762    1.109702
H       -1.663254   -1.094496    1.944697
H       -4.448726    0.250222    1.098545
H       -4.104849   -1.494349    1.146202
H       -4.670704   -0.738571   -0.370417
H       -2.697114   -1.669219   -1.587411
H       -2.244356   -2.460325   -0.056189
H       -0.146520   -1.516000   -0.344226
C        1.168601    2.152693    0.081908
C        1.670336    0.954192   -0.721947
C        2.763943    0.085635   -0.058952
C        3.305302   -0.894437   -1.110795
C        3.914991    0.951336    0.470164
C        2.201135   -0.716291    1.130932
O        1.283015   -1.734026    0.777306
H        0.802363    1.867197    1.083524
H        0.324919    2.632569   -0.442568
H        1.952212    2.917757    0.218106
H        2.070045    1.324058   -1.684753
H        0.818349    0.303026   -0.983064
H        3.848009   -0.351851   -1.904142
H        2.486794   -1.450560   -1.601885
H        4.012529   -1.619796   -0.664354
H        4.764317    0.325922    0.799536
H        3.602144    1.569536    1.330116
H        4.283822    1.633122   -0.316672
H        1.658051   -0.053382    1.823399
H        3.041516   -1.160652    1.701088
H        1.755853   -2.446119    0.325064
