14

C       -1.773953   -0.627528    0.027190
C       -0.438818    0.016866   -0.337845
N       -0.281497    1.397782    0.120545
C        0.762023   -0.766481    0.203816
O        1.952087   -0.111197   -0.105855
H       -1.903263   -0.665579    1.124867
H       -1.840271   -1.661000   -0.356557
H       -2.617521   -0.053898   -0.394980
H       -0.334279    0.042145   -1.437002
H       -0.841365    2.048706   -0.427408
H       -0.564139    1.492150    1.097907
H        0.791836   -1.777217   -0.238802
H        0.634532   -0.894298    1.304849
H        1.732752    0.836950   -0.028819
