  21

 C          1.0492400000       -0.0841500000        0.1920900000
 C          2.5624300000        0.0073900000        0.0341200000
 C          3.0772900000        0.8368200000       -1.1747100000
 C          2.5686600000        0.2429200000       -2.5014400000
 C          2.6048800000        2.2996100000       -1.0781100000
 C          4.6264500000        0.7954300000       -1.1380100000
 O          5.2174200000        1.5447500000       -2.1923800000
 H          0.8067600000       -0.6807100000        1.0781000000
 H          0.5805700000       -0.5723100000       -0.6666700000
 H          0.5950200000        0.9010500000        0.3275600000
 H          2.9568000000       -1.0148700000       -0.0365700000
 H          2.9727600000        0.4293700000        0.9610400000
 H          1.4758700000        0.2671700000       -2.5636900000
 H          2.8892600000       -0.7985900000       -2.6138400000
 H          2.9424100000        0.8035300000       -3.3650100000
 H          1.5150600000        2.3788500000       -1.1468800000
 H          3.0196500000        2.9094600000       -1.8884600000
 H          2.9157800000        2.7511200000       -0.1294400000
 H          4.9978900000       -0.2338500000       -1.2022700000
 H          4.9963000000        1.2170000000       -0.1964500000
 H          5.0862600000        1.0482300000       -3.0174900000
