  18

 O          1.6932000000        0.1961000000        0.4377000000
 C          0.4327000000        0.0767000000        0.9939000000
 C         -0.6950000000        0.0739000000       -0.0548000000
 Cl        -2.2579000000       -0.0821000000        0.7843000000
 Cl        -0.6670000000        1.5648000000       -1.0177000000
 Cl        -0.4606000000       -1.3371000000       -1.1433000000
 H          1.8635000000       -0.5732000000       -0.1264000000
 H          0.2717000000        0.9476000000        1.6479000000
 H          0.3044000000       -0.8439000000        1.5974000000
 O         -1.9767000000       -0.5303000000       -2.6746000000
 C         -3.2541000000       -0.6165000000       -3.1974000000
 C         -3.6528000000       -2.0511000000       -3.5905000000
 Cl        -5.3076000000       -2.0266000000       -4.2478000000
 Cl        -2.5290000000       -2.7124000000       -4.7949000000
 Cl        -3.6129000000       -3.0801000000       -2.1173000000
 H         -1.9354000000       -1.0463000000       -1.8554000000
 H         -3.2833000000       -0.0046000000       -4.1121000000
 H         -4.0378000000       -0.2500000000       -2.5047000000
