38

O       -1.929146   -1.174674    2.169191
C       -3.001446   -0.693526    1.384894
C       -2.580171   -0.330487   -0.056956
C       -1.969553   -1.570745   -0.760752
O       -0.850718   -2.090104   -0.082009
C       -3.776176    0.194236   -0.858548
Br       -5.275735   -1.039548   -1.040922
C       -1.493938    0.755080   -0.051403
Br       -1.982454    2.422471    0.834533
H       -1.303211   -0.461038    2.390770
H       -3.481433    0.178958    1.865004
H       -3.742843   -1.506733    1.353579
H       -1.642342   -1.299862   -1.779890
H       -2.756407   -2.342482   -0.858476
H       -1.081416   -2.076303    0.872597
H       -3.470907    0.445188   -1.885476
H       -4.191040    1.096477   -0.388094
H       -1.200858    1.032943   -1.074202
H       -0.606370    0.402397    0.489856
O        1.547616   -2.655858    1.075202
C        2.795535   -2.060297    0.804247
C        2.750440   -0.512780    0.674976
C        2.060873    0.094212    1.926485
O        0.742768   -0.353143    2.102972
C        4.178386    0.042545    0.671233
Br        5.302906   -0.576073   -0.795224
C        1.990550   -0.183345   -0.613059
Br        1.846539    1.717568   -1.012324
H        0.957515   -2.640604    0.297038
H        3.252734   -2.497622   -0.102199
H        3.445921   -2.320803    1.656511
H        2.025242    1.192328    1.839467
H        2.677035   -0.152360    2.815794
H        0.775832   -1.328008    2.005229
H        4.708502   -0.241329    1.592169
H        4.167175    1.138778    0.590203
H        0.962463   -0.567513   -0.560065
H        2.499276   -0.626174   -1.481523
