  38

 O         -0.9344000000        1.0766000000        1.6210000000
 C         -0.0386000000        0.0278000000        1.3178000000
 C          0.1449000000       -0.1803000000       -0.2011000000
 C          0.7884000000        1.0898000000       -0.8200000000
 O         -0.0293000000        2.2199000000       -0.7327000000
 C          0.9974000000       -1.4218000000       -0.4760000000
 Br         2.7747000000       -1.4087000000        0.3260000000
 C         -1.2023000000       -0.3612000000       -0.9154000000
 Br        -2.3964000000       -1.6875000000       -0.1196000000
 H         -1.8429000000        0.7517000000        1.5378000000
 H         -0.3578000000       -0.9162000000        1.7966000000
 H          0.9289000000        0.3101000000        1.7602000000
 H          0.9876000000        0.9179000000       -1.8929000000
 H          1.7689000000        1.2517000000       -0.3285000000
 H         -0.3569000000        2.2789000000        0.1826000000
 H          1.1624000000       -1.5463000000       -1.5566000000
 H          0.5039000000       -2.3256000000       -0.0895000000
 H         -1.0572000000       -0.6749000000       -1.9596000000
 H         -1.7539000000        0.5872000000       -0.9185000000
 O         -1.6603000000       -1.3995000000       -5.7273000000
 C         -0.3955000000       -0.8022000000       -5.9213000000
 C          0.0338000000        0.0860000000       -4.7335000000
 C          0.1952000000       -0.7945000000       -3.4650000000
 O         -1.0048000000       -1.3694000000       -3.0374000000
 C          1.3316000000        0.8303000000       -5.0583000000
 Br         2.8520000000       -0.3021000000       -5.5143000000
 C         -1.0389000000        1.1293000000       -4.3889000000
 Br        -1.7012000000        2.1748000000       -5.9010000000
 H         -2.3513000000       -0.7543000000       -5.9371000000
 H         -0.3725000000       -0.2202000000       -6.8609000000
 H          0.3235000000       -1.6287000000       -6.0288000000
 H          0.5716000000       -0.1757000000       -2.6309000000
 H          0.9674000000       -1.5615000000       -3.6760000000
 H         -1.4353000000       -1.7695000000       -3.8140000000
 H          1.6592000000        1.4310000000       -4.1967000000
 H          1.1907000000        1.4994000000       -5.9199000000
 H         -0.6595000000        1.8608000000       -3.6604000000
 H         -1.9141000000        0.6343000000       -3.9499000000
