20

C          2.84094       -1.47230        0.43958
C          2.42502       -0.06089        0.04188
C          2.98287        0.45004       -1.31207
C          2.49024       -0.42436       -2.47702
C          2.47916        1.88907       -1.53545
C          4.52098        0.46974       -1.30489
H          2.39560       -1.73076        1.40614
H          3.92412       -1.56001        0.54687
H          2.49952       -2.21448       -0.28594
H          2.73676        0.62273        0.84254
H          1.32812       -0.02211        0.01779
H          1.39568       -0.45004       -2.51536
H          2.84887       -1.45521       -2.39367
H          2.84708       -0.03594       -3.43869
H          1.38475        1.92404       -1.57759
H          2.86118        2.30138       -2.47617
H          2.80415        2.55291       -0.72592
H          4.94104       -0.53554       -1.20178
H          4.90214        1.07999       -0.48056
H          4.91328        0.88997       -2.23802
