  40

 C          2.1733000000        0.0543000000        0.0000000000
 C          0.8641000000        0.8415000000        0.0000000000
 C         -0.4452000000        0.0191000000        0.0000000000
 C         -0.5347000000       -0.8632000000        1.2539000000
 C         -1.6239000000        1.0044000000        0.0000000000
 C         -0.5347000000       -0.8631000000       -1.2540000000
 H          3.0343000000        0.7445000000        0.0000000000
 H          2.2690000000       -0.5885000000       -0.8918000000
 H          2.2690000000       -0.5886000000        0.8918000000
 H          0.8500000000        1.5085000000       -0.8831000000
 H          0.8500000000        1.5085000000        0.8831000000
 H         -0.4394000000       -0.2577000000        2.1738000000
 H          0.2551000000       -1.6341000000        1.2716000000
 H         -1.5070000000       -1.3866000000        1.2943000000
 H         -1.5986000000        1.6552000000        0.8928000000
 H         -2.5903000000        0.4687000000        0.0000000000
 H         -1.5987000000        1.6552000000       -0.8927000000
 H          0.2551000000       -1.6340000000       -1.2717000000
 H         -0.4395000000       -0.2576000000       -2.1738000000
 H         -1.5070000000       -1.3865000000       -1.2944000000
 C         -1.7582000000        3.0988000000       -4.7071000000
 C         -2.9652000000        3.8466000000       -4.1434000000
 C         -4.2115000000        3.0000000000       -3.7962000000
 C         -3.8784000000        1.9551000000       -2.7211000000
 C         -5.2913000000        3.9472000000       -3.2515000000
 C         -4.7553000000        2.2926000000       -5.0463000000
 H         -0.9350000000        3.8035000000       -4.9153000000
 H         -1.9961000000        2.5844000000       -5.6539000000
 H         -1.3725000000        2.3443000000       -4.0002000000
 H         -3.2709000000        4.6258000000       -4.8675000000
 H         -2.6533000000        4.3882000000       -3.2299000000
 H         -3.4527000000        2.4334000000       -1.8200000000
 H         -3.1513000000        1.2083000000       -3.0845000000
 H         -4.7876000000        1.4074000000       -2.4140000000
 H         -4.9396000000        4.4724000000       -2.3450000000
 H         -6.2095000000        3.3930000000       -2.9856000000
 H         -5.5640000000        4.7127000000       -4.0004000000
 H         -4.0406000000        1.5506000000       -5.4426000000
 H         -4.9730000000        3.0185000000       -5.8509000000
 H         -5.6928000000        1.7558000000       -4.8142000000
