18

C       -0.414763    1.523910   -0.210448 
C       -0.405069    0.004353    0.008546 
C       -0.481203   -0.302773    1.508787 
C       -1.596091   -0.626643   -0.722115 
C        0.888569   -0.598219   -0.574211 
O        2.070059   -0.114979    0.012140 
H       -1.360539    1.967050    0.148172 
H       -0.312142    1.776323   -1.282486 
H        0.402853    2.019324    0.344017 
H       -1.376032    0.159287    1.963178 
H        0.412920    0.079314    2.029117 
H       -0.534158   -1.392038    1.686517 
H       -2.550881   -0.241643   -0.322051 
H       -1.600988   -1.725257   -0.602797 
H       -1.570451   -0.403068   -1.804327 
H        0.896928   -0.443179   -1.674926 
H        0.891092   -1.688121   -0.400524 
H        2.192266    0.808072   -0.244368 
