46

C        2.639627   -1.344147   -1.706390
C        1.959896   -0.138921   -1.060444
C        2.670375    0.494819    0.157335
C        4.014791    1.103650   -0.270521
C        1.779328    1.625411    0.695684
C        2.945316   -0.544452    1.268493
C        1.737416   -1.313868    1.800073
H        2.058499   -1.686992   -2.579767
H        2.715993   -2.196394   -1.009129
H        3.657749   -1.107512   -2.060338
H        0.940069   -0.433719   -0.759700
H        1.826434    0.651077   -1.823584
H        3.875668    1.843684   -1.079351
H        4.718603    0.333850   -0.632082
H        4.498407    1.619527    0.578468
H        0.780698    1.259605    0.991234
H        1.626424    2.403484   -0.073670
H        2.238943    2.107272    1.577658
H        3.433173   -0.018542    2.110968
H        3.694922   -1.268502    0.899325
H        0.976940   -0.642967    2.234447
H        2.048201   -2.014984    2.593684
H        1.244789   -1.907896    1.010788
C       -1.473025   -1.809980   -0.881488
C       -1.733928   -0.917567    0.329428
C       -2.937155    0.047737    0.239679
C       -4.252257   -0.744557    0.177871
C       -2.948531    0.905803    1.514593
C       -2.860737    0.950782   -1.013001
C       -1.590487    1.782373   -1.180993
H       -2.338324   -2.453223   -1.117384
H       -0.612495   -2.474260   -0.689390
H       -1.235191   -1.220911   -1.783994
H       -0.824461   -0.324842    0.533018
H       -1.872725   -1.555004    1.223053
H       -4.348733   -1.422492    1.045220
H       -4.321756   -1.354982   -0.739363
H       -5.120995   -0.061845    0.185665
H       -2.004977    1.464916    1.642257
H       -3.078894    0.272023    2.410233
H       -3.776966    1.636978    1.495609
H       -3.734310    1.629656   -0.993628
H       -2.995861    0.322039   -1.912498
H       -1.660834    2.410903   -2.085464
H       -0.693071    1.150277   -1.289316
H       -1.419696    2.457281   -0.324893
