  26

 C         -0.3867000000       -1.2523000000       -0.0248000000
 C         -0.2053000000        0.2451000000       -0.1485000000
 C         -0.6049000000        0.7979000000       -1.5055000000
 Cl        -1.0978000000        1.0711000000        1.1670000000
 N          1.2859000000        0.5918000000        0.0992000000
 O          1.9148000000       -0.1660000000        0.7900000000
 O          1.6912000000        1.6196000000       -0.3776000000
 H         -0.0606000000       -1.6186000000        0.9536000000
 H          0.2013000000       -1.7594000000       -0.8040000000
 H         -1.4491000000       -1.4989000000       -0.1622000000
 H         -0.5164000000        1.8899000000       -1.5300000000
 H         -1.6466000000        0.5144000000       -1.7056000000
 H          0.0345000000        0.3674000000       -2.2928000000
 C          0.6333000000        2.4481000000       -5.3592000000
 C          0.9898000000        1.2605000000       -6.2269000000
 C          0.7137000000       -0.0803000000       -5.5690000000
 Cl         0.1429000000        1.3877000000       -7.8004000000
 N          2.4991000000        1.3301000000       -6.5769000000
 O          3.0075000000        2.4203000000       -6.5854000000
 O          3.0390000000        0.2933000000       -6.8623000000
 H          0.8738000000        3.3948000000       -5.8529000000
 H          1.1918000000        2.3930000000       -4.4132000000
 H         -0.4436000000        2.4235000000       -5.1399000000
 H          0.9275000000       -0.9089000000       -6.2536000000
 H         -0.3442000000       -0.1154000000       -5.2772000000
 H          1.3324000000       -0.1925000000       -4.6642000000
