10

C        1.795614    0.000000   -0.000008 
H        1.432675    0.899839    0.522070 
H        1.414072   -0.001516   -1.033649 
H        1.432625   -0.898273    0.524724 
H        2.897568   -0.000050   -0.013096 
C       -1.795614   -0.000000    0.000008 
H       -1.414072    0.001522    1.033649 
H       -1.432675   -0.899842   -0.522064 
H       -1.432625    0.898270   -0.524730 
H       -2.897568    0.000049    0.013096 
