10

C        0.000003   -0.000001    0.000000 
H       -0.332295   -1.047853   -0.076003 
H       -0.565310    0.507627    0.798082 
H       -0.178145    0.512309   -0.959163 
H        1.075735    0.027921    0.237083 
C        0.000003   -0.000001    2.000000
H       -0.332295   -1.047853    1.923996
H       -0.565310    0.507627    2.798082
H       -0.178145    0.512309    1.040837
H        1.075735    0.027921    2.237083
