  36

 C          0.1888000000        0.3978000000        1.6831000000
 C          0.3425000000        0.0491000000        0.2140000000
 C         -0.2747000000       -1.3266000000       -0.1268000000
 O         -1.6716000000       -1.3296000000        0.0538000000
 C         -0.2581000000        1.1511000000       -0.7002000000
 O         -1.5885000000        1.4175000000       -0.3860000000
 N          1.8130000000       -0.0512000000       -0.1470000000
 O          2.6377000000        0.2205000000        0.6929000000
 O          2.0648000000       -0.3926000000       -1.2839000000
 H         -0.8815000000        0.5306000000        1.9061000000
 H          0.6945000000        1.3457000000        1.9196000000
 H          0.6101000000       -0.3878000000        2.3315000000
 H          0.2134000000       -2.1152000000        0.4784000000
 H         -0.0930000000       -1.5507000000       -1.1874000000
 H         -1.8806000000       -1.4057000000        0.9949000000
 H         -0.1246000000        0.8401000000       -1.7546000000
 H          0.3078000000        2.0861000000       -0.5496000000
 H         -2.0754000000        0.5782000000       -0.4495000000
 C         -5.9863000000       -2.7139000000       -5.6163000000
 C         -5.1545000000       -3.0688000000       -4.3974000000
 C         -4.4862000000       -4.4563000000       -4.5310000000
 O         -3.5417000000       -4.4808000000       -5.5757000000
 C         -4.0864000000       -1.9821000000       -4.0991000000
 O         -3.2749000000       -1.7353000000       -5.2037000000
 N         -6.0394000000       -3.1475000000       -3.1672000000
 O         -7.2075000000       -2.8575000000       -3.2717000000
 O         -5.4979000000       -3.4916000000       -2.1372000000
 H         -5.3154000000       -2.5971000000       -6.4819000000
 H         -6.5090000000       -1.7566000000       -5.4733000000
 H         -6.7404000000       -3.4887000000       -5.8310000000
 H         -5.2630000000       -5.2333000000       -4.6694000000
 H         -3.9390000000       -4.6837000000       -3.6053000000
 H         -3.9953000000       -4.5546000000       -6.4265000000
 H         -3.5080000000       -2.2972000000       -3.2088000000
 H         -4.5993000000       -1.0372000000       -3.8516000000
 H         -2.8770000000       -2.5828000000       -5.4667000000
