21

C          1.03540        0.07849        0.18060
C          2.54444        0.05512       -0.04045
C          3.05592       -0.38299       -1.43884
N          2.60954       -1.76921       -1.75661
C          2.59241        0.56887       -2.57431
O          1.17908        0.52677       -2.76671
C          4.60994       -0.38747       -1.39942
O          5.14615       -0.89780       -2.61913
H          0.82371        0.31200        1.22879
H          0.57079       -0.88546       -0.03941
H          0.54896        0.85305       -0.42001
H          2.97580       -0.60905        0.72103
H          2.93046        1.05801        0.18072
H          1.59201       -1.81034       -1.68421
H          2.94402       -2.39785       -1.02251
H          3.05404        0.30358       -3.53466
H          2.87312        1.60234       -2.35099
H          0.99116       -0.35785       -3.12837
H          4.98160       -1.02405       -0.58803
H          5.00783        0.62168       -1.24468
H          4.54838       -1.63194       -2.86845
