  16

 C          0.9886600000       -0.0640500000       -0.1007800000
 C          2.5180800000       -0.0124300000       -0.0670400000
 C          2.9857600000        1.4439200000       -0.0041000000
 C          3.0415200000       -0.8449000000        1.1154300000
 N          4.4990700000       -0.8764200000        1.1631400000
 H          0.5988300000        0.4943300000       -0.9585400000
 H          0.5561100000        0.3673300000        0.8086000000
 H          0.6358100000       -1.0970900000       -0.1871100000
 H          2.8900900000       -0.4508500000       -1.0023400000
 H          2.6671000000        1.9230400000        0.9282800000
 H          2.5715800000        2.0196500000       -0.8387100000
 H          4.0764000000        1.5154200000       -0.0682700000
 H          2.6719400000       -1.8737400000        1.0338900000
 H          2.6649700000       -0.4380500000        2.0608100000
 H          4.8630400000       -1.2767500000        0.2999300000
 H          4.8002000000       -1.4932900000        1.9164000000
