23

N          2.81496       -0.59020       -1.28965
C          2.35988       -0.10824        0.01837
C          2.91732       -0.92107        1.21810
C          2.44456       -0.26292        2.54922
N          0.98455       -0.25072        2.73322
C          2.45104       -2.39586        1.16917
O          1.03545       -2.50989        1.06390
C          4.46533       -0.92335        1.21131
O          4.99839        0.39716        1.25129
H          2.41084        0.00449       -2.01490
H          2.39999       -1.51107       -1.45577
H          1.26418       -0.11631        0.01538
H          2.65675        0.94371        0.11261
H          2.81014        0.76788        2.62388
H          2.87592       -0.81232        3.39513
H          0.57989        0.46248        2.12222
H          0.78642        0.08718        3.67843
H          2.76382       -2.93520        2.07082
H          2.88768       -2.92459        0.31467
H          0.67188       -1.91826        1.76087
H          4.87243       -1.43014        0.32900
H          4.85163       -1.45506        2.08838
H          4.94827        0.73745        0.33856
