  29

 C          2.6632600000       -0.0041500000       -1.4108200000
 C          2.4981200000       -0.1829400000        0.0969100000
 C          2.9873100000        0.9597300000        1.0357400000
 C          2.5077000000        2.3648300000        0.5500800000
 C          0.9956400000        2.5618300000        0.4463600000
 C          2.3793900000        0.7128000000        2.4662800000
 C          2.8426100000       -0.5412800000        3.2032600000
 C          4.5467300000        0.9663400000        1.1899800000
 C          5.4125400000        1.2684900000       -0.0229200000
 H          2.4065800000       -0.9415200000       -1.9171400000
 H          3.6813500000        0.2504100000       -1.7060700000
 H          1.9936400000        0.7670000000       -1.7993900000
 H          2.9979700000       -1.1201400000        0.3772000000
 H          1.4277300000       -0.3577400000        0.2733400000
 H          2.9381500000        2.5972500000       -0.4295500000
 H          2.8962000000        3.1299800000        1.2370300000
 H          0.5419200000        1.8634600000       -0.2606400000
 H          0.7812600000        3.5753700000        0.0907600000
 H          0.4998200000        2.4514100000        1.4142900000
 H          1.2865500000        0.6525000000        2.3942900000
 H          2.5961400000        1.5784500000        3.1058900000
 H          2.7002200000       -1.4449400000        2.6062900000
 H          2.2640800000       -0.6610100000        4.1253500000
 H          3.8948800000       -0.4731900000        3.4934100000
 H          4.8824200000       -0.0091700000        1.5738400000
 H          4.8086000000        1.7020700000        1.9666300000
 H          5.4633400000        0.4101200000       -0.6984300000
 H          6.4394800000        1.4637900000        0.2989500000
 H          5.0721900000        2.1476600000       -0.5791500000
