10

Br       -1.956709   -0.281486    1.823964 
C       -2.545136    0.002558    0.000584 
Br       -4.356677    0.693567    0.008854 
Br       -1.374334    1.272046   -0.873158 
Br       -2.508816   -1.682384   -0.960309 
Br        4.355257   -0.619524    0.321012 
C        2.545339   -0.002126    0.001710 
Br        1.956949    1.070786    1.503192 
Br        2.512658    1.073162   -1.612731 
Br        1.371637   -1.526241   -0.211217 
