14

C          0.99936        0.09231       -0.06190
C          2.52893        0.08854       -0.03642
C          3.05020        1.23264        0.83479
C          3.05044       -1.25364        0.47919
Cl         3.12851        0.32850       -1.71363
H          0.59109       -0.05136        0.94526
H          0.60699       -0.71179       -0.69462
H          0.60722        1.04145       -0.44447
H          2.70665        1.12407        1.86989
H          2.70006        2.20527        0.47095
H          4.14612        1.25604        0.85162
H          2.70710       -1.43958        1.50311
H          4.14607       -1.28096        0.48879
H          2.70019       -2.08548       -0.14239
