  34

 O         -2.1767000000       -0.6527000000       -0.9495000000
 C         -0.9727000000       -1.1984000000       -0.5330000000
 C          0.1021000000       -0.1250000000       -0.2487000000
 C          0.1880000000        0.9447000000       -1.3454000000
 O          1.0040000000        2.0129000000       -1.0153000000
 N         -0.1827000000        0.5684000000        1.0665000000
 O          0.7461000000        0.8566000000        1.7691000000
 O         -1.3504000000        0.8220000000        1.2766000000
 N          1.4319000000       -0.8261000000       -0.0509000000
 O          1.4294000000       -1.7774000000        0.6877000000
 O          2.3888000000       -0.3990000000       -0.6574000000
 H         -2.5364000000       -0.1311000000       -0.2137000000
 H         -0.5941000000       -1.8275000000       -1.3551000000
 H         -1.0678000000       -1.8388000000        0.3629000000
 H         -0.8317000000        1.3279000000       -1.4917000000
 H          0.4867000000        0.4250000000       -2.2768000000
 H          1.9187000000        1.6942000000       -0.9686000000
 O         -3.3749000000        1.1929000000       -4.5675000000
 C         -2.0545000000        1.6104000000       -4.5121000000
 C         -1.1847000000        0.9875000000       -5.6274000000
 C         -1.4104000000       -0.5210000000       -5.7937000000
 O         -0.7881000000       -1.0552000000       -6.9087000000
 N         -1.4723000000        1.6575000000       -6.9541000000
 O         -0.5544000000        1.8560000000       -7.7006000000
 O         -2.6419000000        1.8959000000       -7.1716000000
 N          0.2679000000        1.3024000000       -5.3275000000
 O          0.5184000000        2.4449000000       -5.0404000000
 O          1.0630000000        0.3906000000       -5.3769000000
 H         -3.7573000000        1.5268000000       -5.3952000000
 H         -1.6411000000        1.2692000000       -3.5490000000
 H         -1.9395000000        2.7088000000       -4.5562000000
 H         -2.4940000000       -0.6665000000       -5.9064000000
 H         -1.1065000000       -0.9972000000       -4.8409000000
 H          0.1711000000       -1.0056000000       -6.7750000000
