  42

 C          2.2019000000       -0.0354000000       -0.6746000000
 C          1.3101000000       -0.0014000000        0.5664000000
 C         -0.2068000000        0.0064000000        0.3208000000
 N         -0.9465000000        0.1452000000        1.5842000000
 C         -0.6345000000        1.2194000000       -0.5423000000
 O         -2.0306000000        1.3616000000       -0.4882000000
 C         -0.6640000000       -1.2949000000       -0.3677000000
 O         -2.0568000000       -1.4347000000       -0.3987000000
 H          3.2646000000       -0.0185000000       -0.3794000000
 H          2.0288000000        0.8361000000       -1.3286000000
 H          2.0424000000       -0.9466000000       -1.2752000000
 H          1.5593000000        0.9030000000        1.1547000000
 H          1.5459000000       -0.8657000000        1.2151000000
 H         -0.3572000000        0.4534000000        2.3543000000
 H         -1.4296000000       -0.7132000000        1.8423000000
 H         -0.3525000000        1.0851000000       -1.5994000000
 H         -0.1258000000        2.1343000000       -0.1689000000
 H         -2.2212000000        1.2499000000        0.4687000000
 H         -0.2683000000       -2.1620000000        0.1926000000
 H         -0.2297000000       -1.3357000000       -1.3878000000
 H         -2.4225000000       -0.5877000000       -0.7133000000
 C         -3.0109000000       -3.6950000000       -3.8234000000
 C         -3.2856000000       -4.3711000000       -2.4802000000
 C         -4.7549000000       -4.4421000000       -2.0359000000
 N         -4.8727000000       -5.0182000000       -0.6880000000
 C         -5.3855000000       -3.0308000000       -1.9372000000
 O         -6.6059000000       -3.1121000000       -1.2471000000
 C         -5.5866000000       -5.3047000000       -3.0057000000
 O         -6.8680000000       -5.5904000000       -2.5189000000
 H         -1.9272000000       -3.6845000000       -4.0289000000
 H         -3.3575000000       -2.6477000000       -3.8343000000
 H         -3.4988000000       -4.2220000000       -4.6605000000
 H         -2.7228000000       -3.8327000000       -1.6932000000
 H         -2.8841000000       -5.4017000000       -2.4960000000
 H         -3.9856000000       -5.0413000000       -0.1902000000
 H         -5.2834000000       -5.9498000000       -0.7034000000
 H         -5.5921000000       -2.6078000000       -2.9339000000
 H         -4.6789000000       -2.3475000000       -1.4184000000
 H         -6.3836000000       -3.6896000000       -0.4845000000
 H         -5.0788000000       -6.2751000000       -3.1573000000
 H         -5.6313000000       -4.7985000000       -3.9920000000
 H         -7.2468000000       -4.7507000000       -2.2001000000
