26

C        2.609488   -0.276586   -0.196778
C        1.242288   -0.456385   -0.854348
C       -0.000004   -0.349580    0.064647
C       -0.000010   -1.515643    1.066247
C        0.000004    0.971434    0.866581
C        0.000023    2.260270    0.047436
C       -1.242296   -0.456372   -0.854348
C       -2.609494   -0.276562   -0.196778
H        3.412217   -0.434640   -0.937396
H        2.775218   -0.994870    0.624283
H        2.739480    0.739461    0.214078
H        1.209957   -1.445741   -1.348616
H        1.146051    0.282889   -1.670691
H        0.886251   -1.485047    1.723219
H       -0.000015   -2.488915    0.542644
H       -0.886271   -1.485037    1.723219
H        0.876983    0.973147    1.539246
H       -0.876984    0.973164    1.539234
H        0.890809    2.337192   -0.599945
H        0.000029    3.140519    0.713069
H       -0.890754    2.337212   -0.599954
H       -1.209974   -1.445727   -1.348618
H       -1.146052    0.282903   -1.670689
H       -2.775231   -0.994848    0.624280
H       -3.412225   -0.434605   -0.937396
H       -2.739477    0.739484    0.214082
