26

C          1.04640        0.09755        0.23758
C          2.54629        0.02604       -0.02793
C          2.98340       -0.36688       -1.47493
C          2.48090       -1.79476       -1.78664
C          2.38415        0.58975       -2.54511
C          2.85415        2.03716       -2.48127
C          4.54357       -0.35567       -1.48396
C          5.21508       -0.72758       -2.80070
H          0.87069        0.27922        1.30360
H          0.53701       -0.83496       -0.01794
H          0.57814        0.91699       -0.31460
H          2.97307       -0.69889        0.67802
H          2.98359        0.99505        0.24291
H          1.38819       -1.85377       -1.76927
H          2.86889       -2.51693       -1.06011
H          2.79012       -2.12387       -2.78386
H          1.28921        0.58159       -2.47410
H          2.60801        0.20783       -3.54933
H          2.69932        2.47498       -1.49122
H          2.29390        2.64181       -3.20086
H          3.91430        2.12523       -2.73880
H          4.90935       -1.05058       -0.71619
H          4.90771        0.63496       -1.18316
H          4.96991       -1.74797       -3.10688
H          6.30315       -0.67759       -2.68429
H          4.93902       -0.04330       -3.60699
