34

F -1.7635 -0.0668 1.526 
C -0.4056 0.0486 1.3871 
C -0.0003 -0.0024 -0.0881 
C -0.5783 1.199 -0.8381 
F -0.0245 2.3647 -0.357 
C 1.5261 0.0431 -0.1752 
F 2.0687 -1.1047 0.3569 
C -0.4866 -1.2889 -0.7684 
F -1.8279 -1.2336 -1.0435 
H 0.0754 -0.7769 1.9398 
H -0.0914 1.0108 1.8286 
H -1.6689 1.2444 -0.7004 
H -0.3525 1.1312 -1.9182 
H 1.9274 0.9077 0.3786 
H 1.848 0.1194 -1.2297 
H -0.2928 -2.1645 -0.1269 
H 0.0484 -1.4304 -1.7264 
F 0.2063 -1.9438 6.6997 
C 0.2953 -0.7245 6.0817 
C -0.5581 0.3195 6.8061 
C -0.023 0.5526 8.22 
F 1.2383 1.1028 8.161 
C -0.4883 1.6323 6.0242 
F -1.1042 1.4924 4.8011 
C -2.0277 -0.1114 6.8998 
F -2.2091 -1.0653 7.8668 
H -0.0467 -0.8339 5.038 
H 1.3539 -0.4099 6.0842 
H 0.034 -0.4004 8.7669 
H -0.6767 1.2499 8.7755 
H 0.5579 1.9359 5.8551 
H -1.0038 2.4371 6.5792 
H -2.3762 -0.5152 5.9347 
H -2.6567 0.7597 7.1634 
