17

C        0.070316    0.733354    1.346924 
C       -0.000003   -0.000024    0.000000 
C       -1.395111   -0.616544   -0.174778 
C        0.266244    0.994657   -1.138734 
C        1.058551   -1.111460   -0.033403 
H       -0.682178    1.540913    1.399916 
H        1.065559    1.188449    1.500570 
H       -0.117767    0.040801    2.187277 
H       -2.179349    0.161779   -0.154719 
H       -1.615012   -1.338447    0.632510 
H       -1.475464   -1.152225   -1.138006 
H       -0.482029    1.807860   -1.139667 
H        0.222022    0.493877   -2.122854 
H        1.265706    1.455452   -1.038911 
H        0.891956   -1.843983    0.777063 
H        2.075222   -0.696366    0.090253 
H        1.031355   -1.658008   -0.993485 
