52

C 2.6095 -0.2998 -0.1838 
C 1.2423 -0.494 -0.8371 
C 0.0 -0.367 0.0792 
C 0.0 -1.5107 1.1062 
C 0.0 0.9713 0.8519 
C 0.0 2.2418 0.0046 
C -1.2423 -0.494 -0.8372 
C -2.6095 -0.2998 -0.1838 
H 3.4122 -0.4741 -0.9207 
H 2.7752 -0.9999 0.653 
H 2.7395 0.7251 0.2047 
H 1.21 -1.494 -1.3096 
H 1.1461 0.2271 -1.6696 
H 0.8863 -1.4657 1.7624 
H 0.0 -2.4953 0.6041 
H -0.8863 -1.4657 1.7624 
H 0.877 0.9878 1.5243 
H -0.877 0.9879 1.5243 
H 0.8908 2.3045 -0.6442 
H 0.0 3.1365 0.6508 
H -0.8908 2.3045 -0.6442 
H -1.21 -1.494 -1.3096 
H -1.1461 0.2271 -1.6696 
H -2.7752 -0.9999 0.653 
H -3.4122 -0.4741 -0.9207 
H -2.7395 0.7251 0.2047 
C -1.2652 -4.3179 -5.0842 
C -0.2918 -5.3797 -5.5929 
C -0.3281 -5.6998 -7.108 
C -1.6777 -6.3432 -7.4649 
C -0.1656 -4.4217 -7.9614 
C 1.123 -3.6289 -7.7538 
C 0.8144 -6.7108 -7.3756 
C 1.0583 -7.1138 -8.8289 
H -1.1872 -4.2236 -3.9875 
H -2.3144 -4.5676 -5.3178 
H -1.0527 -3.3236 -5.5136 
H -0.4741 -6.3241 -5.046 
H 0.7347 -5.0748 -5.3178 
H -2.519 -5.6578 -7.2634 
H -1.8449 -7.2658 -6.8798 
H -1.7299 -6.6074 -8.5353 
H -1.0296 -3.7598 -7.7694 
H -0.2487 -4.6994 -9.0279 
H 1.2255 -3.274 -6.7136 
H 1.1386 -2.74 -8.4078 
H 2.0187 -4.2284 -7.992 
H 0.6033 -7.6205 -6.7823 
H 1.7551 -6.3027 -6.9625 
H 0.1566 -7.5411 -9.3002 
H 1.851 -7.8795 -8.884 
H 1.3865 -6.2587 -9.4448 
