  10

 Br        -1.6105000000       -0.8869000000        0.6124000000
 C          0.0000000000        0.0000000000        0.0000000000
 Br         0.6337000000       -0.8569000000       -1.6183000000
 Br        -0.3876000000        1.8633000000       -0.3649000000
 Br         1.3644000000       -0.1194000000        1.3709000000
 Br        -0.7792000000        4.4082000000        3.7393000000
 C         -0.3655000000        3.8260000000        1.9378000000
 Br        -1.9537000000        3.9582000000        0.8356000000
 Br         1.0288000000        4.9512000000        1.1995000000
 Br         0.2422000000        1.9863000000        1.9769000000
