28

C -1.3447 -0.5626 0.1164 
C -0.0 -0.0 -0.3496 
C 0.1851 1.4458 0.1166 
C 1.1595 -0.8832 0.1165 
H -1.4972 -1.5938 -0.2485 
H -2.1861 0.0529 -0.2482 
H -1.3985 -0.5853 1.2209 
H -0.0 -0.0 -1.4563 
H 0.1926 1.5036 1.2212 
H -0.6318 2.0934 -0.2481 
H 1.1388 1.8668 -0.2481 
H 1.0473 -1.9197 -0.2482 
H 1.2059 -0.9186 1.2211 
H 2.1289 -0.4996 -0.248 
C -3.5148 2.5286 -4.1836 
C -2.4072 2.7856 -3.1594 
C -2.989 3.2432 -1.82 
C -1.5204 1.551 -2.9834 
H -3.0967 2.2327 -5.1621 
H -4.1352 3.4289 -4.3394 
H -4.1823 1.715 -3.8432 
H -1.772 3.6042 -3.5483 
H -3.6355 2.4582 -1.3848 
H -3.6009 4.155 -1.938 
H -2.1907 3.4639 -1.0893 
H -1.0703 1.2391 -3.9426 
H -2.1082 0.6983 -2.5948 
H -0.6986 1.7444 -2.2713 
