28

C       -1.778625   -1.262481    0.739966
C       -1.903489    0.000007   -0.114830
C       -3.206668    0.000088   -0.916379
C       -1.778535    1.262407    0.740082
H       -0.825065   -1.278758    1.296771
H       -1.820522   -2.174219    0.118144
H       -2.600073   -1.319687    1.478456
H       -1.066058    0.000011   -0.838139
H       -4.082787    0.000090   -0.241283
H       -3.280440   -0.892415   -1.562640
H       -3.280376    0.892654   -1.562561
H       -0.824965    1.278567    1.296871
H       -2.599968    1.319597    1.478590
H       -1.820381    2.174206    0.118346
C        2.308014   -0.000022    1.328881
C        2.548013   -0.000016   -0.182247
C        1.978306   -1.263306   -0.831418
C        1.978382    1.263320   -0.831394
H        2.749251   -0.892651    1.806586
H        1.225074   -0.000001    1.552627
H        2.749288    0.892582    1.806598
H        3.641943   -0.000048   -0.349331
H        0.883617   -1.320058   -0.687478
H        2.421236   -2.174752   -0.392293
H        2.176344   -1.280965   -1.917778
H        2.421413    2.174728   -0.392292
H        0.883705    1.320173   -0.687400
H        2.176371    1.280962   -1.917763
