34

Cl 1.9734 1.9246 -0.4605 
C 0.8686 1.0772 0.6737 
C 0.0001 0.0001 0.0005 
C -0.869 -0.673 1.0768 
Cl -1.9747 0.4608 1.9236 
C -0.8681 0.6728 -1.0771 
Cl -1.9708 -0.462 -1.9263 
C 0.8688 -1.0768 -0.6722 
Cl 1.9713 -1.9273 0.4619 
H 0.2374 1.8457 1.1405 
H 1.5016 0.6169 1.4449 
H -0.2381 -1.1404 1.8452 
H -1.5019 -1.4436 0.6153 
H -0.2367 1.1407 -1.8447 
H -1.5026 1.4429 -0.6171 
H 1.5037 -0.6155 -1.4413 
H 0.2376 -1.8438 -1.1416 
Cl 6.4123 1.7731 2.628 
C 4.9062 0.8328 2.8974 
C 4.5604 -0.1233 1.7424 
C 3.2789 -0.8919 2.1084 
Cl 1.8543 0.168 2.3771 
C 4.3666 0.7057 0.4607 
Cl 3.9165 -0.2779 -0.9728 
C 5.69 -1.1397 1.5023 
Cl 6.0592 -2.1601 2.9333 
H 4.0975 1.5601 3.0516 
H 5.054 0.2601 3.8234 
H 3.4267 -1.4712 3.0301 
H 3.0111 -1.5779 1.293 
H 5.2908 1.2414 0.2042 
H 3.5586 1.4356 0.6076 
H 6.6181 -0.6105 1.2457 
H 5.4276 -1.8213 0.6816 
