28

C 2.087 -0.0942 0.0 
C 0.7128 0.5689 0.0 
C -0.4236 -0.4466 0.0 
C -1.7937 0.186 0.0 
O -2.7691 -0.7388 0.0 
O -2.0273 1.3649 0.0 
H 2.2256 -0.732 -0.8914 
H 2.2256 -0.732 0.8914 
H 2.8913 0.6606 0.0 
H 0.6084 1.2268 -0.8798 
H 0.6084 1.2268 0.8798 
H -0.3644 -1.115 0.8788 
H -0.3644 -1.115 -0.8788 
H -3.6169 -0.261 0.0 
C 6.272 -0.2882 -4.8185 
C 5.1501 0.2211 -5.7185 
C 3.8388 0.4085 -4.9648 
C 2.7132 0.912 -5.8348 
O 1.5747 1.065 -5.1369 
O 2.7839 1.1579 -7.009 
H 6.016 -1.2651 -4.3706 
H 6.4744 0.4154 -3.9911 
H 7.2089 -0.4155 -5.3865 
H 4.9876 -0.4788 -6.5561 
H 5.44 1.1799 -6.1816 
H 3.9562 1.1194 -4.1261 
H 3.5043 -0.5374 -4.5002 
H 0.8994 1.3894 -5.7579 
