  28

 C          2.0870000000       -0.0942000000        0.0000000000
 C          0.7128000000        0.5689000000        0.0000000000
 C         -0.4236000000       -0.4466000000        0.0000000000
 C         -1.7937000000        0.1860000000        0.0000000000
 O         -2.7691000000       -0.7388000000        0.0000000000
 O         -2.0273000000        1.3649000000        0.0000000000
 H          2.2256000000       -0.7320000000       -0.8914000000
 H          2.2256000000       -0.7320000000        0.8914000000
 H          2.8913000000        0.6606000000        0.0000000000
 H          0.6084000000        1.2268000000       -0.8798000000
 H          0.6084000000        1.2268000000        0.8798000000
 H         -0.3644000000       -1.1150000000        0.8788000000
 H         -0.3644000000       -1.1150000000       -0.8788000000
 H         -3.6169000000       -0.2610000000        0.0000000000
 C          6.2720000000       -0.2882000000       -4.8185000000
 C          5.1501000000        0.2211000000       -5.7185000000
 C          3.8388000000        0.4085000000       -4.9648000000
 C          2.7132000000        0.9120000000       -5.8348000000
 O          1.5747000000        1.0650000000       -5.1369000000
 O          2.7839000000        1.1579000000       -7.0090000000
 H          6.0160000000       -1.2651000000       -4.3706000000
 H          6.4744000000        0.4154000000       -3.9911000000
 H          7.2089000000       -0.4155000000       -5.3865000000
 H          4.9876000000       -0.4788000000       -6.5561000000
 H          5.4400000000        1.1799000000       -6.1816000000
 H          3.9562000000        1.1194000000       -4.1261000000
 H          3.5043000000       -0.5374000000       -4.5002000000
 H          0.8994000000        1.3894000000       -5.7579000000
