17

O        0.000007   -1.608297    1.684417
C        0.000003   -1.546856    0.353026
O        0.000003   -2.516219   -0.353819
C        0.000001   -0.111221   -0.197782
C       -1.231269    0.025063   -1.110101
Cl       -2.769063   -0.201505   -0.218989
C       -0.000001    0.920869    0.936053
Cl       -0.000009    2.608082    0.319423
C        1.231270    0.025067   -1.110102
Cl        2.769065   -0.201493   -0.218989
H        0.000008   -2.549351    1.937273
H       -1.203688   -0.743389   -1.894925
H       -1.262511    1.026187   -1.562406
H        0.894775    0.807955    1.560744
H       -0.894774    0.807948    1.560747
H        1.262508    1.026191   -1.562408
H        1.203692   -0.743385   -1.894924
