22

C 0.0 0.3049 -1.2713 
C 0.0 -0.5264 0.0 
C 0.0 0.3049 1.2713 
Cl -1.4653 -1.5855 0.0 
Cl 1.4653 -1.5855 0.0 
H -0.8982 0.9443 -1.2956 
H 0.0 -0.3449 -2.1598 
H 0.8982 0.9443 -1.2956 
H -0.8982 0.9443 1.2956 
H 0.8982 0.9443 1.2956 
H 0.0 -0.3449 2.1598 
C 0.5766 -4.676 0.2377 
C 1.3334 -5.9158 -0.2066 
C 2.8124 -5.8827 0.1381 
Cl 0.5874 -7.3631 0.5793 
Cl 1.1595 -6.0902 -1.9977 
H 0.6576 -4.5651 1.3319 
H -0.4869 -4.7519 -0.0359 
H 1.0083 -3.7849 -0.2477 
H 2.9361 -5.7948 1.2304 
H 3.2868 -5.0146 -0.3492 
H 3.3115 -6.8019 -0.2051 
