28

C 2.087 -0.0942 0.0 
C 0.7128 0.5689 0.0 
C -0.4236 -0.4466 0.0 
C -1.7937 0.186 0.0 
O -2.7691 -0.7388 0.0 
O -2.0273 1.3649 0.0 
H 2.2256 -0.732 -0.8914 
H 2.2256 -0.732 0.8914 
H 2.8913 0.6606 0.0 
H 0.6084 1.2268 -0.8798 
H 0.6084 1.2268 0.8798 
H -0.3644 -1.115 0.8788 
H -0.3644 -1.115 -0.8788 
H -3.6169 -0.261 0.0 
C -3.3806 -7.9429 2.8047 
C -4.6334 -7.1437 2.4583 
C -5.332 -7.6685 1.2097 
C -6.5749 -6.8933 0.8468 
O -7.1631 -7.3841 -0.2576 
O -7.0179 -5.9491 1.444 
H -2.6418 -7.9079 1.984 
H -3.6204 -9.0049 2.9926 
H -2.8939 -7.5441 3.7106 
H -4.3767 -6.081 2.3081 
H -5.3426 -7.1637 3.3036 
H -5.6224 -8.7288 1.3281 
H -4.6576 -7.6474 0.3337 
H -7.9508 -6.839 -0.429 
