38

O -1.6999 -0.0617 1.6236 
C -0.9045 0.8726 0.9322 
C 0.0482 0.1165 0.0019 
C 0.971 -0.7922 0.8395 
O 1.8515 -1.5626 0.0538 
C -0.7513 -0.7424 -0.9756 
F -1.6013 0.0337 -1.7323 
C 0.89 1.1122 -0.7951 
F 1.5507 1.9752 0.0522 
H -2.33 0.4119 2.18 
H -0.3073 1.4901 1.6304 
H -1.5269 1.5563 0.322 
H 0.3542 -1.4236 1.504 
H 1.5953 -0.1479 1.4798 
H 1.4399 -2.4087 -0.1586 
H -1.36 -1.4745 -0.4184 
H -0.0733 -1.271 -1.6687 
H 0.2534 1.7125 -1.4666 
H 1.6445 0.5681 -1.3884 
O -2.1649 -4.2113 -2.8184 
C -1.0621 -3.5973 -3.4433 
C -0.4162 -4.6017 -4.4018 
C 0.086 -5.8229 -3.6048 
O 0.6545 -6.8214 -4.4208 
C -1.4382 -5.0631 -5.4386 
F -1.9233 -3.9956 -6.1614 
C 0.7556 -3.9423 -5.1279 
F 1.6543 -3.4203 -4.2228 
H -2.5997 -3.5688 -2.2447 
H -0.3063 -3.2735 -2.7021 
H -1.3737 -2.7055 -4.0219 
H -0.7399 -6.2187 -2.9867 
H 0.8787 -5.4812 -2.9195 
H -0.0278 -7.4489 -4.6875 
H -2.2893 -5.5503 -4.9333 
H -0.9741 -5.7676 -6.1511 
H 0.4028 -3.12 -5.7727 
H 1.2821 -4.6938 -5.7406 
