32

C        2.224762   -0.055870    1.439587
C        3.019195    0.001948    0.134211
C        3.884444   -1.246902   -0.039963
C        2.100610    0.203775   -1.087717
N        1.336159    1.433178   -1.145079
H        2.894806   -0.114032    2.315796
H        1.573723   -0.950870    1.455508
H        1.576988    0.828955    1.560392
H        3.691503    0.882107    0.181200
H        4.498458   -1.188578   -0.956333
H        3.253438   -2.152281   -0.116610
H        4.567668   -1.387859    0.816151
H        1.390136   -0.644763   -1.136625
H        2.717169    0.134162   -2.004212
H        1.954790    2.243803   -1.125631
H        0.681648    1.512116   -0.359574
C       -3.940586    0.553368   -0.131187
C       -2.881604   -0.465045    0.293343
C       -3.061223   -1.791528   -0.446316
C       -1.453839    0.067191    0.084401
N       -1.091684    1.287896    0.788616
H       -4.959435    0.159086    0.027010
H       -3.837590    0.801321   -1.204195
H       -3.860049    1.492379    0.444007
H       -3.006760   -0.657362    1.377681
H       -4.064630   -2.216806   -0.270554
H       -2.315774   -2.538260   -0.120174
H       -2.941336   -1.651382   -1.536455
H       -1.277214    0.243078   -0.993247
H       -0.734055   -0.715368    0.386084
H       -1.214156    1.189405    1.796336
H       -1.651200    2.082002    0.480526
