  30

 N          0.1901000000        1.1856000000       -0.7853000000
 C          0.0239000000        0.5358000000        0.5156000000
 C         -1.3212000000       -0.1971000000        0.5813000000
 O         -1.5229000000       -1.0731000000       -0.4902000000
 C          1.1985000000       -0.4465000000        0.6660000000
 O          1.2773000000       -1.2470000000       -0.4873000000
 H          0.6800000000        2.0747000000       -0.7210000000
 H         -0.6962000000        1.3232000000       -1.2669000000
 H          0.0452000000        1.2549000000        1.3590000000
 H         -2.1439000000        0.5404000000        0.5532000000
 H         -1.3850000000       -0.7157000000        1.5623000000
 H         -0.6990000000       -1.5791000000       -0.6086000000
 H          1.0560000000       -1.1105000000        1.5350000000
 H          2.1421000000        0.1168000000        0.8243000000
 H          1.1709000000       -0.5994000000       -1.2157000000
 N         -2.5893000000       -1.0622000000        2.0405000000
 C         -3.5112000000       -2.1723000000        2.2855000000
 C         -4.2675000000       -2.5347000000        1.0019000000
 O         -3.4219000000       -2.7649000000       -0.0881000000
 C         -2.6536000000       -3.3519000000        2.7756000000
 O         -1.5836000000       -3.5426000000        1.8835000000
 H         -2.5127000000       -0.4320000000        2.8352000000
 H         -2.8360000000       -0.5284000000        1.2095000000
 H         -4.2717000000       -1.9348000000        3.0563000000
 H         -4.9356000000       -1.7005000000        0.7204000000
 H         -4.9170000000       -3.4103000000        1.2187000000
 H         -2.6954000000       -3.3333000000        0.2250000000
 H         -3.2402000000       -4.2851000000        2.8118000000
 H         -2.2837000000       -3.1470000000        3.8022000000
 H         -1.2570000000       -2.6312000000        1.7292000000
