17

C       -2.551957   -0.322472   -0.000000
C       -1.279601    0.520965   -0.000000
C        0.000000   -0.315012    0.000000
C        1.279601    0.520965    0.000000
C        2.551957   -0.322472   -0.000000
H       -2.597568   -0.973952    0.891053
H       -2.597572   -0.973948   -0.891056
H       -3.456008    0.310451    0.000003
H       -1.277967    1.186783    0.883485
H       -1.277967    1.186781   -0.883487
H        0.000000   -0.982040   -0.884233
H       -0.000000   -0.982039    0.884235
H        1.277967    1.186781    0.883486
H        1.277966    1.186782   -0.883485
H        2.597569   -0.973951   -0.891055
H        2.597571   -0.973949    0.891055
H        3.456008    0.310451   -0.000002
