  34

 C         -2.5520000000       -0.2984000000        0.0000000000
 C         -1.2796000000        0.5451000000        0.0000000000
 C          0.0000000000       -0.2909000000        0.0000000000
 C          1.2796000000        0.5451000000        0.0000000000
 C          2.5520000000       -0.2984000000        0.0000000000
 H         -2.5976000000       -0.9499000000        0.8911000000
 H         -2.5976000000       -0.9498000000       -0.8911000000
 H         -3.4560000000        0.3346000000        0.0000000000
 H         -1.2780000000        1.2109000000        0.8835000000
 H         -1.2780000000        1.2109000000       -0.8835000000
 H          0.0000000000       -0.9579000000       -0.8842000000
 H          0.0000000000       -0.9579000000        0.8842000000
 H          1.2780000000        1.2109000000        0.8835000000
 H          1.2780000000        1.2109000000       -0.8835000000
 H          2.5976000000       -0.9499000000       -0.8911000000
 H          2.5976000000       -0.9498000000        0.8911000000
 H          3.4560000000        0.3346000000        0.0000000000
 C          0.8623000000       -2.2111000000       -1.2534000000
 C          2.0075000000       -1.8182000000       -2.1833000000
 C          3.3373000000       -2.4764000000       -1.8163000000
 C          4.4902000000       -2.0889000000       -2.7420000000
 C          5.8139000000       -2.7510000000       -2.3677000000
 H          1.0816000000       -1.9248000000       -0.2091000000
 H          0.6925000000       -3.3025000000       -1.2704000000
 H         -0.0816000000       -1.7196000000       -1.5454000000
 H          2.1315000000       -0.7189000000       -2.1722000000
 H          1.7457000000       -2.0850000000       -3.2245000000
 H          3.2148000000       -3.5771000000       -1.8272000000
 H          3.6009000000       -2.2099000000       -0.7741000000
 H          4.6111000000       -0.9893000000       -2.7303000000
 H          4.2253000000       -2.3554000000       -3.7826000000
 H          5.7325000000       -3.8522000000       -2.4047000000
 H          6.1216000000       -2.4743000000       -1.3434000000
 H          6.6239000000       -2.4508000000       -3.0545000000
