34

C -0.8493 0.9241 0.9236 
C 0.0 0.0375 0.0 
C 0.8493 0.9241 -0.9236 
C 0.8936 -0.8276 0.8987 
Cl 1.9977 -1.9246 -0.0039 
C -0.8936 -0.8276 -0.8987 
Cl -1.9977 -1.9246 0.0039 
H -0.2056 1.5801 1.5353 
H -1.4756 0.32 1.6005 
H -1.5187 1.569 0.3277 
H 1.5187 1.569 -0.3277 
H 0.2056 1.5801 -1.5353 
H 1.4756 0.32 -1.6005 
H 0.2829 -1.4711 1.5484 
H 1.534 -0.1888 1.5255 
H -0.2829 -1.4711 -1.5484 
H -1.534 -0.1888 -1.5255 
C 0.2909 -1.8585 -2.8655 
C 1.1807 -1.3437 -4.0073 
C 2.0381 -0.1734 -3.502 
C 2.0654 -2.5147 -4.4552 
Cl 3.2131 -2.1019 -5.778 
C 0.3273 -0.8125 -5.1667 
Cl -0.7804 -2.0365 -5.8822 
H 0.906 -2.1959 -2.013 
H -0.3422 -2.6992 -3.1935 
H -0.3739 -1.0543 -2.5043 
H 2.6795 -0.5007 -2.6649 
H 1.3992 0.6491 -3.1357 
H 2.6932 0.2207 -4.2963 
H 1.4493 -3.345 -4.8295 
H 2.6771 -2.8724 -3.6132 
H 0.9668 -0.4579 -5.988 
H -0.3075 0.0176 -4.8219 
