  34

 C         -0.8493000000        0.9241000000        0.9236000000
 C          0.0000000000        0.0375000000        0.0000000000
 C          0.8493000000        0.9241000000       -0.9236000000
 C          0.8936000000       -0.8276000000        0.8987000000
 Cl         1.9977000000       -1.9246000000       -0.0039000000
 C         -0.8936000000       -0.8276000000       -0.8987000000
 Cl        -1.9977000000       -1.9246000000        0.0039000000
 H         -0.2056000000        1.5801000000        1.5353000000
 H         -1.4756000000        0.3200000000        1.6005000000
 H         -1.5187000000        1.5690000000        0.3277000000
 H          1.5187000000        1.5690000000       -0.3277000000
 H          0.2056000000        1.5801000000       -1.5353000000
 H          1.4756000000        0.3200000000       -1.6005000000
 H          0.2829000000       -1.4711000000        1.5484000000
 H          1.5340000000       -0.1888000000        1.5255000000
 H         -0.2829000000       -1.4711000000       -1.5484000000
 H         -1.5340000000       -0.1888000000       -1.5255000000
 C          0.2909000000       -1.8585000000       -2.8655000000
 C          1.1807000000       -1.3437000000       -4.0073000000
 C          2.0381000000       -0.1734000000       -3.5020000000
 C          2.0654000000       -2.5147000000       -4.4552000000
 Cl         3.2131000000       -2.1019000000       -5.7780000000
 C          0.3273000000       -0.8125000000       -5.1667000000
 Cl        -0.7804000000       -2.0365000000       -5.8822000000
 H          0.9060000000       -2.1959000000       -2.0130000000
 H         -0.3422000000       -2.6992000000       -3.1935000000
 H         -0.3739000000       -1.0543000000       -2.5043000000
 H          2.6795000000       -0.5007000000       -2.6649000000
 H          1.3992000000        0.6491000000       -3.1357000000
 H          2.6932000000        0.2207000000       -4.2963000000
 H          1.4493000000       -3.3450000000       -4.8295000000
 H          2.6771000000       -2.8724000000       -3.6132000000
 H          0.9668000000       -0.4579000000       -5.9880000000
 H         -0.3075000000        0.0176000000       -4.8219000000
