18

C        0.447450    1.481337   -0.386026
C        0.411903    0.005036    0.012875
C        1.637241   -0.722885   -0.559196
N        0.350187   -0.062332    1.476724
C       -0.876211   -0.671930   -0.518497
N       -2.129656   -0.118577   -0.052870
H        0.426446    1.594743   -1.483985
H        1.367881    1.968701   -0.015362
H       -0.413823    2.019396    0.043294
H        1.672346   -0.662277   -1.661940
H        1.620846   -1.792906   -0.281242
H        2.571899   -0.284194   -0.164820
H        0.451656   -1.028592    1.792331
H        1.111994    0.470524    1.897840
H       -0.836275   -1.740085   -0.225121
H       -0.865113   -0.658977   -1.623198
H       -2.317652    0.781480   -0.492280
H       -2.056209    0.049198    0.952557
