26

C       -3.210461   -0.774171    0.865519
C       -1.865872   -0.299176    0.335699
O       -1.081506   -1.412340   -0.098371
C       -2.010336    0.746579   -0.771960
O       -0.825177    1.420888   -1.084552
H       -3.772616    0.055733    1.324695
H       -3.061668   -1.557463    1.626210
H       -3.831107   -1.193011    0.050579
H       -1.280334    0.152005    1.152646
H       -1.598216   -1.928846   -0.734605
H       -2.732869    1.513174   -0.445640
H       -2.443904    0.253409   -1.670388
H       -0.123604    0.791755   -1.377346
C        3.181131   -1.164461   -0.048782
C        2.218154    0.004336   -0.216866
O        1.194253   -0.336160   -1.146231
C        1.629719    0.455232    1.122501
O        0.944931    1.669904    1.087438
H        2.675900   -2.018247    0.439708
H        4.052002   -0.882548    0.567313
H        3.541803   -1.498027   -1.035232
H        2.745230    0.862176   -0.666142
H        0.582581   -0.976819   -0.725947
H        2.452251    0.576319    1.848149
H        0.990037   -0.375826    1.502977
H        0.290488    1.677839    0.360086
