26

C -1.4811 -0.3784 0.0466 
C -0.1343 0.2272 -0.3134 
O -0.016 1.5697 0.1364 
C 1.0551 -0.5698 0.2196 
O 2.2557 0.0728 -0.0895 
H -2.2995 0.2451 -0.3488 
H -1.5994 -0.4516 1.1443 
H -1.5834 -1.395 -0.3704 
H -0.034 0.2954 -1.4092 
H -0.2501 1.5979 1.0759 
H 1.0804 -1.578 -0.2281 
H 0.9295 -0.7 1.3204 
H 2.0856 1.0218 0.0276 
C -0.5972 2.6497 -3.2343 
C 0.7058 3.4237 -3.3496 
O 0.9727 4.1948 -2.1864 
C 1.9181 2.5386 -3.6338 
O 3.0875 3.3012 -3.6634 
H -1.4317 3.3352 -3.0136 
H -0.5396 1.9 -2.4225 
H -0.8242 2.1129 -4.1713 
H 0.6305 4.1673 -4.1601 
H 0.8964 3.6162 -1.4133 
H 1.8123 2.0348 -4.6098 
H 1.9658 1.7422 -2.8541 
H 2.9936 3.9571 -2.9533 
