  26

 C         -1.4811000000       -0.3784000000        0.0466000000
 C         -0.1343000000        0.2272000000       -0.3134000000
 O         -0.0160000000        1.5697000000        0.1364000000
 C          1.0551000000       -0.5698000000        0.2196000000
 O          2.2557000000        0.0728000000       -0.0895000000
 H         -2.2995000000        0.2451000000       -0.3488000000
 H         -1.5994000000       -0.4516000000        1.1443000000
 H         -1.5834000000       -1.3950000000       -0.3704000000
 H         -0.0340000000        0.2954000000       -1.4092000000
 H         -0.2501000000        1.5979000000        1.0759000000
 H          1.0804000000       -1.5780000000       -0.2281000000
 H          0.9295000000       -0.7000000000        1.3204000000
 H          2.0856000000        1.0218000000        0.0276000000
 C         -0.5972000000        2.6497000000       -3.2343000000
 C          0.7058000000        3.4237000000       -3.3496000000
 O          0.9727000000        4.1948000000       -2.1864000000
 C          1.9181000000        2.5386000000       -3.6338000000
 O          3.0875000000        3.3012000000       -3.6634000000
 H         -1.4317000000        3.3352000000       -3.0136000000
 H         -0.5396000000        1.9000000000       -2.4225000000
 H         -0.8242000000        2.1129000000       -4.1713000000
 H          0.6305000000        4.1673000000       -4.1601000000
 H          0.8964000000        3.6162000000       -1.4133000000
 H          1.8123000000        2.0348000000       -4.6098000000
 H          1.9658000000        1.7422000000       -2.8541000000
 H          2.9936000000        3.9571000000       -2.9533000000
