  36

 C          0.6085000000       -0.6314000000       -1.2615000000
 C          0.2158000000        0.1580000000        0.0000000000
 C          0.6085000000       -0.6314000000        1.2615000000
 C          0.9293000000        1.5126000000        0.0000000000
 C         -1.3066000000        0.4111000000        0.0000000000
 N         -2.0940000000       -0.7047000000        0.0000000000
 O         -1.7896000000        1.5239000000        0.0000000000
 H          0.1580000000       -1.6393000000       -1.2865000000
 H          1.7047000000       -0.7597000000       -1.3001000000
 H          0.2959000000       -0.0979000000       -2.1758000000
 H          0.2959000000       -0.0978000000        2.1758000000
 H          1.7048000000       -0.7596000000        1.3001000000
 H          0.1580000000       -1.6393000000        1.2866000000
 H          0.6542000000        2.1050000000       -0.8873000000
 H          2.0235000000        1.3628000000        0.0000000000
 H          0.6542000000        2.1051000000        0.8872000000
 H         -1.7223000000       -1.6438000000        0.0000000000
 H         -3.0986000000       -0.5738000000        0.0000000000
 C          1.2408000000       -7.1589000000        0.9307000000
 C          1.3187000000       -7.6253000000        2.3954000000
 C          1.9421000000       -9.0304000000        2.4705000000
 C          2.1714000000       -6.6422000000        3.2019000000
 C         -0.0983000000       -7.6536000000        3.0063000000
 N         -0.9908000000       -8.4889000000        2.3975000000
 O         -0.4156000000       -6.9829000000        3.9660000000
 H          0.6759000000       -7.8615000000        0.2930000000
 H          2.2572000000       -7.0743000000        0.5073000000
 H          0.7574000000       -6.1695000000        0.8554000000
 H          1.9670000000       -9.3974000000        3.5113000000
 H          2.9801000000       -9.0031000000        2.0943000000
 H          1.3912000000       -9.7702000000        1.8634000000
 H          1.7387000000       -5.6292000000        3.1762000000
 H          3.1939000000       -6.6007000000        2.7866000000
 H          2.2320000000       -6.9455000000        4.2593000000
 H         -0.7571000000       -9.0595000000        1.5975000000
 H         -1.9304000000       -8.5314000000        2.7738000000
