15

C       -0.140541    1.355597    1.269035
C        0.000006    0.540800    0.000003
C        0.140592    1.355603   -1.269018
N        1.189332   -0.403958    0.180810
O        2.173561   -0.193156   -0.480981
O        1.056472   -1.258830    1.021561
N       -1.189350   -0.403915   -0.180816
O       -2.173547   -0.193145    0.481033
O       -1.056536   -1.258734   -1.021630
H        0.775813    1.952039    1.410250
H       -0.289129    0.699719    2.138866
H       -1.000318    2.035252    1.180826
H        1.000393    2.035225   -1.180794
H       -0.775739    1.952078   -1.410235
H        0.289159    0.699726   -2.138854
