  26

 O          1.3244000000       -1.2128000000       -0.0459000000
 C          1.2129000000        0.1790000000        0.2035000000
 C         -0.0895000000        0.7749000000       -0.3239000000
 C         -1.3345000000        0.1108000000        0.2658000000
 O         -1.4586000000       -1.2361000000       -0.0995000000
 H          1.3882000000       -1.3514000000       -1.0016000000
 H          2.0853000000        0.7202000000       -0.2126000000
 H          1.2579000000        0.2828000000        1.3006000000
 H         -0.1213000000        0.6805000000       -1.4265000000
 H         -0.1000000000        1.8566000000       -0.0945000000
 H         -2.2392000000        0.6259000000       -0.0983000000
 H         -1.3172000000        0.2332000000        1.3719000000
 H         -0.6104000000       -1.6630000000        0.1073000000
 O         -1.5973000000       -3.7406000000        4.4329000000
 C         -2.5818000000       -3.3140000000        5.3606000000
 C         -3.0272000000       -1.8719000000        5.1335000000
 C         -3.5945000000       -1.6333000000        3.7335000000
 O         -2.6412000000       -1.8090000000        2.7218000000
 H         -0.7881000000       -3.2320000000        4.5852000000
 H         -2.2233000000       -3.4517000000        6.3996000000
 H         -3.4341000000       -3.9989000000        5.2163000000
 H         -2.1707000000       -1.1891000000        5.2942000000
 H         -3.7887000000       -1.6149000000        5.8930000000
 H         -3.9605000000       -0.5961000000        3.6517000000
 H         -4.4745000000       -2.2981000000        3.5843000000
 H         -2.2287000000       -2.6761000000        2.8715000000
