58

C -2.8396 -0.5846 0.0115 
C -1.3581 -0.8527 -0.2587 
C -0.38 0.3265 -0.0047 
C -0.5784 1.3738 -1.1165 
C -0.7251 0.9983 1.3372 
C 1.1177 -0.2006 0.0049 
C 1.3862 -1.1672 -1.1644 
C 2.1209 0.9617 -0.1224 
C 1.44 -0.9474 1.3131 
H -3.0406 -0.4086 1.0815 
H -3.4415 -1.4573 -0.2951 
H -3.219 0.2869 -0.5496 
H -1.2519 -1.1765 -1.3088 
H -1.0564 -1.7181 0.3579 
H -1.6458 1.6328 -1.2204 
H -0.2323 1.008 -2.0988 
H -0.0425 2.3118 -0.895 
H -1.6808 1.5445 1.2635 
H 0.0426 1.7329 1.6349 
H -0.8266 0.2648 2.1552 
H 1.0899 -0.7377 -2.1372 
H 0.8587 -2.1275 -1.0415 
H 2.4659 -1.3932 -1.2216 
H 1.9393 1.7567 0.6214 
H 2.0965 1.4212 -1.1246 
H 3.1478 0.5892 0.0412 
H 0.7084 -1.7437 1.5339 
H 1.4717 -0.2662 2.1799 
H 2.4322 -1.4264 1.2369 
C -4.216 1.5066 -8.1851 
C -2.8446 1.2162 -7.5729 
C -2.2421 2.3193 -6.6609 
C -1.7967 3.4971 -7.548 
C -3.3282 2.841 -5.7021 
C -1.0104 1.7383 -5.8446 
C -0.0757 0.9067 -6.7437 
C -0.1651 2.8686 -5.2269 
C -1.4806 0.831 -4.692 
H -5.0081 1.5629 -7.4198 
H -4.4939 0.6996 -8.8846 
H -4.2312 2.4519 -8.7547 
H -2.1356 1.0146 -8.3947 
H -2.9251 0.2734 -7.003 
H -2.6137 3.8068 -8.2217 
H -0.9305 3.2366 -8.1807 
H -1.5255 4.3814 -6.9476 
H -4.0828 3.4279 -6.2527 
H -2.9052 3.5058 -4.9296 
H -3.8584 2.0206 -5.1889 
H 0.2327 1.4587 -7.6485 
H -0.5395 -0.0407 -7.0645 
H 0.8437 0.6482 -6.1887 
H -0.7753 3.5768 -4.64 
H 0.3803 3.4436 -5.9938 
H 0.5885 2.4408 -4.5421 
H -2.1734 0.0425 -5.0333 
H -1.9846 1.4036 -3.8955 
H -0.6117 0.327 -4.2329 
