  29

 C          0.9169100000        0.0611000000        0.0223900000
 C          2.4386500000       -0.0775300000        0.0474500000
 C          3.0209000000       -1.5256700000       -0.1043900000
 C          2.4786000000       -2.3980600000        1.0562900000
 C          2.4799300000       -2.1434100000       -1.4187200000
 C          4.6318300000       -1.5002700000       -0.1007100000
 C          5.2014700000       -0.9088100000        1.2122300000
 C          5.2448000000       -2.9163200000       -0.2476400000
 C          5.2044600000       -0.6514100000       -1.2623800000
 H          0.6440100000        1.1147300000        0.1456700000
 H          0.4413700000       -0.4933200000        0.8351100000
 H          0.4927100000       -0.2706000000       -0.9292900000
 H          2.7801400000        0.3597200000        0.9919600000
 H          2.8236300000        0.5627800000       -0.7530800000
 H          1.3877000000       -2.4889100000        1.0170400000
 H          2.7298900000       -1.9752100000        2.0337200000
 H          2.8641300000       -3.4206300000        1.0159100000
 H          1.3894400000       -2.2448000000       -1.3979700000
 H          2.8669700000       -3.1519800000       -1.5886500000
 H          2.7295200000       -1.5288300000       -2.2887600000
 H          4.9045100000       -1.4944100000        2.0874100000
 H          4.8888900000        0.1275300000        1.3679400000
 H          6.2985000000       -0.9038100000        1.1937700000
 H          4.9647100000       -3.5754100000        0.5788200000
 H          6.3413300000       -2.8673100000       -0.2482900000
 H          4.9556400000       -3.3964100000       -1.1863300000
 H          4.9033900000        0.3974400000       -1.1960100000
 H          4.8999200000       -1.0374700000       -2.2398000000
 H          6.3015400000       -0.6606000000       -1.2478100000
