  17

 Cl         2.9384200000       -0.7839500000        1.5042200000
 C          2.6940900000        0.0826400000       -0.0307000000
 C          3.2124800000       -0.6421100000       -1.3006000000
 C          2.7109800000       -2.1077500000       -1.3925400000
 Cl         0.9316100000       -2.2630100000       -1.4228500000
 C          2.6675400000        0.1260400000       -2.5434700000
 Cl         3.2508300000        1.8095000000       -2.6786700000
 C          4.7653200000       -0.6199400000       -1.3855200000
 Cl         5.6262500000       -1.7120200000       -0.2746900000
 H          3.1792800000        1.0561700000        0.0910600000
 H          1.6175700000        0.2716100000       -0.1014700000
 H          3.0529800000       -2.7246800000       -0.5581600000
 H          3.0771200000       -2.5781400000       -2.3120100000
 H          1.5757600000        0.1929300000       -2.5351800000
 H          2.9584000000       -0.3800300000       -3.4704800000
 H          5.1618900000        0.3816800000       -1.1920500000
 H          5.0902200000       -0.9111300000       -2.3907900000
