34

F       -1.140060   -1.789084   -0.188094 
C       -1.843987   -0.852034   -0.924215 
C       -2.713636    0.000000    0.000000 
C       -1.843988    0.852034    0.924217 
F       -1.140062    1.789087    0.188099 
C       -3.591916    0.916908   -0.855116 
F       -4.424995    0.168052   -1.654233 
C       -3.591918   -0.916906    0.855114 
F       -4.424998   -0.168050    1.654230 
H       -2.469618   -1.395109   -1.651142 
H       -1.114661   -0.223496   -1.458222 
H       -1.114662    0.223495    1.458224 
H       -2.469620    1.395107    1.651145 
H       -2.970919    1.555637   -1.504574 
H       -4.214337    1.555484   -0.206394 
H       -2.970923   -1.555636    1.504574 
H       -4.214339   -1.555482    0.206392 
F        4.425009   -1.654220   -0.168050 
C        3.591926   -0.855108   -0.916907 
C        2.713636   -0.000001   -0.000001 
C        3.591909    0.855119    0.916909 
F        4.424982    1.654245    0.168056 
C        1.843984    0.924210   -0.852036 
F        1.140061    0.188086   -1.789088 
C        1.843993   -0.924225    0.852030 
F        1.140060   -0.188112    1.789082 
H        2.970937   -1.504571   -1.555639 
H        4.214344   -0.206381   -1.555480 
H        4.214335    0.206400    1.555484 
H        2.970907    1.504571    1.555640 
H        2.469611    1.651141   -1.395109 
H        1.114654    1.458213   -0.223498 
H        2.469628   -1.651149    1.395103 
H        1.114671   -1.458235    0.223489 
