36

C -1.9627 0.771 0.0035 
C -0.8626 -0.0428 -0.6702 
C 0.5308 -0.0026 -0.0109 
C 0.4706 -0.4126 1.465 
C 1.481 -0.933 -0.7705 
S 1.2192 1.7174 -0.0167 
H -2.2115 0.3761 1.0034 
H -2.8851 0.7409 -0.601 
H -1.659 1.8251 0.1173 
H -0.7542 0.287 -1.7204 
H -1.1719 -1.1052 -0.7177 
H 0.0081 -1.4123 1.5539 
H -0.1252 0.294 2.0667 
H 1.4826 -0.4628 1.9017 
H 1.1174 -1.9761 -0.717 
H 2.4973 -0.8957 -0.3447 
H 1.5455 -0.6541 -1.8371 
H 1.2609 1.861 -1.3631 
C -6.0106 2.0592 1.3532 
C -5.8577 2.7611 2.6986 
C -5.3485 4.2163 2.6665 
C -6.2171 5.1 1.7639 
C -5.3335 4.7825 4.0894 
S -3.6422 4.3075 1.9504 
H -6.797 2.5245 0.7345 
H -6.2917 1.0029 1.5029 
H -5.0659 2.0875 0.7848 
H -5.1763 2.174 3.3425 
H -6.8349 2.7675 3.2198 
H -7.2704 5.0456 2.094 
H -6.1732 4.7829 0.7085 
H -5.8951 6.154 1.8166 
H -6.3584 4.7975 4.5048 
H -4.9366 5.811 4.1029 
H -4.7088 4.1649 4.7586 
H -3.038 3.5509 2.8978 
