  21

 C          2.8454600000        0.1464100000        1.4858400000
 C          2.4392500000        0.0743700000        0.0152200000
 O          2.7985400000        1.3145700000       -0.5989000000
 C          3.0239800000       -1.1271100000       -0.7876300000
 C          2.5358200000       -2.4617500000       -0.1938600000
 C          2.5378500000       -1.0462100000       -2.2494400000
 C          4.5645600000       -1.1266000000       -0.7979200000
 H          2.4009700000        1.0322900000        1.9534800000
 H          3.9283500000        0.2555700000        1.6006600000
 H          2.5161200000       -0.7318400000        2.0465800000
 H          1.3443200000        0.0229300000       -0.0262000000
 H          3.7506500000        1.4549400000       -0.4642300000
 H          1.4410700000       -2.5060900000       -0.1712600000
 H          2.9014200000       -2.6119400000        0.8266600000
 H          2.8887400000       -3.3108400000       -0.7906300000
 H          1.4436500000       -1.0744300000       -2.3031200000
 H          2.9193500000       -1.8863800000       -2.8414500000
 H          2.8734600000       -0.1249100000       -2.7380900000
 H          4.9764900000       -1.2333100000        0.2098700000
 H          4.9668600000       -0.2061000000       -1.2338800000
 H          4.9517800000       -1.9625400000       -1.3932300000
