17

C          1.02321        0.07935       -0.05933
C          2.54370        0.07910       -0.04378
C          3.07846        0.05796        1.38682
C          4.60584        0.05756        1.41424
C          5.12636        0.03645        2.84249
H          0.65325        0.09457       -1.08891
H          0.62709        0.95875        0.45828
H          0.62710       -0.81497        0.43208
H          2.91039        0.96957       -0.56710
H          2.91037       -0.79549       -0.59320
H          2.70210       -0.83206        1.90592
H          2.70210        0.93225        1.93200
H          4.98948        0.94800        0.90276
H          4.98949       -0.81737        0.87667
H          4.78216        0.91535        3.39698
H          6.22041        0.03636        2.84875
H          4.78217       -0.85847        3.37075
