  17

 C          1.0232100000        0.0793500000       -0.0593300000
 C          2.5437000000        0.0791000000       -0.0437800000
 C          3.0784600000        0.0579600000        1.3868200000
 C          4.6058400000        0.0575600000        1.4142400000
 C          5.1263600000        0.0364500000        2.8424900000
 H          0.6532500000        0.0945700000       -1.0889100000
 H          0.6270900000        0.9587500000        0.4582800000
 H          0.6271000000       -0.8149700000        0.4320800000
 H          2.9103900000        0.9695700000       -0.5671000000
 H          2.9103700000       -0.7954900000       -0.5932000000
 H          2.7021000000       -0.8320600000        1.9059200000
 H          2.7021000000        0.9322500000        1.9320000000
 H          4.9894800000        0.9480000000        0.9027600000
 H          4.9894900000       -0.8173700000        0.8766700000
 H          4.7821600000        0.9153500000        3.3969800000
 H          6.2204100000        0.0363600000        2.8487500000
 H          4.7821700000       -0.8584700000        3.3707500000
