  34

 C          1.3221000000       -0.7248000000        0.2895000000
 C          0.0000000000        0.0000000000        0.0000000000
 C         -0.3318000000       -0.1181000000       -1.4943000000
 C         -1.1254000000       -0.6388000000        0.8261000000
 C          0.1350000000        1.4816000000        0.3787000000
 H          1.2547000000       -1.7958000000        0.0258000000
 H          1.5870000000       -0.6565000000        1.3602000000
 H          2.1524000000       -0.2853000000       -0.2925000000
 H         -0.4352000000       -1.1760000000       -1.7965000000
 H          0.4626000000        0.3345000000       -2.1151000000
 H         -1.2807000000        0.3956000000       -1.7329000000
 H         -1.2460000000       -1.7081000000        0.5742000000
 H         -2.0915000000       -0.1364000000        0.6378000000
 H         -0.9135000000       -0.5686000000        1.9084000000
 H          0.9396000000        1.9688000000       -0.2014000000
 H          0.3741000000        1.5979000000        1.4514000000
 H         -0.8037000000        2.0301000000        0.1806000000
 C         -2.2746000000       -3.1962000000        5.7292000000
 C         -1.9988000000       -3.5613000000        4.2636000000
 C         -2.6696000000       -4.9027000000        3.9354000000
 C         -2.5669000000       -2.4676000000        3.3482000000
 C         -0.4843000000       -3.6787000000        4.0417000000
 H         -3.3594000000       -3.1050000000        5.9191000000
 H         -1.8029000000       -2.2328000000        5.9946000000
 H         -1.8757000000       -3.9673000000        6.4130000000
 H         -3.7630000000       -4.8482000000        4.0863000000
 H         -2.2794000000       -5.7108000000        4.5803000000
 H         -2.4878000000       -5.1918000000        2.8844000000
 H         -3.6581000000       -2.3602000000        3.4864000000
 H         -2.3828000000       -2.7039000000        2.2844000000
 H         -2.1014000000       -1.4884000000        3.5621000000
 H         -0.0468000000       -4.4602000000        4.6890000000
 H          0.0264000000       -2.7257000000        4.2705000000
 H         -0.2550000000       -3.9414000000        2.9931000000
