46

C -1.8094 -1.3245 -0.0095 
C -1.0077 -0.3006 0.7921 
C 0.0 0.5646 0.0 
C -0.7424 1.4657 -0.9994 
C 0.7424 1.4657 0.9994 
C 1.0077 -0.3006 -0.7921 
C 1.8094 -1.3245 0.0095 
H -2.3988 -0.8514 -0.8135 
H -2.5186 -1.8561 0.648 
H -1.159 -2.0859 -0.4738 
H -0.4665 -0.8263 1.6003 
H -1.7107 0.3835 1.3042 
H -1.4953 2.0918 -0.487 
H -1.2614 0.8791 -1.7773 
H -0.0365 2.1421 -1.5141 
H 1.2614 0.8791 1.7773 
H 0.0365 2.1421 1.5141 
H 1.4953 2.0918 0.487 
H 1.7107 0.3835 -1.3042 
H 0.4665 -0.8263 -1.6003 
H 2.3988 -0.8514 0.8135 
H 2.5186 -1.8561 -0.648 
H 1.159 -2.0859 0.4739 
C 3.1121 0.8686 2.526 
C 4.3575 1.387 3.2429 
C 4.8711 0.5467 4.4352 
C 5.3444 -0.8325 3.9497 
C 6.0748 1.2784 5.0497 
C 3.7747 0.3281 5.5036 
C 3.1146 1.5822 6.0738 
H 3.2585 -0.149 2.1251 
H 2.8592 1.5235 1.6746 
H 2.2327 0.8433 3.1927 
H 4.1638 2.418 3.592 
H 5.1825 1.4736 2.5106 
H 6.1156 -0.7344 3.1642 
H 4.5142 -1.432 3.5373 
H 5.7843 -1.4097 4.7827 
H 5.8133 2.2994 5.3781 
H 6.8936 1.3696 4.3136 
H 6.4687 0.7304 5.9249 
H 4.2227 -0.2501 6.3339 
H 2.9901 -0.3252 5.0792 
H 3.8487 2.2599 6.5425 
H 2.3782 1.3093 6.8491 
H 2.5771 2.1547 5.2981 
