  18

 O          2.7774900000        1.0825400000        0.7624400000
 C          2.3259400000       -0.0519000000        0.0331300000
 C          2.8392400000       -1.3617000000        0.6874400000
 C          2.3732700000       -1.4213600000        2.1657700000
 Br         0.4377100000       -1.4803900000        2.4056600000
 C          2.3009400000       -2.5390800000       -0.1538500000
 Br         2.8241300000       -4.2969500000        0.5052200000
 C          4.3885700000       -1.3349800000        0.7559500000
 Br         5.2786200000       -1.2852700000       -0.9801300000
 H          2.4219700000        1.8730100000        0.3165500000
 H          2.6749000000        0.0481300000       -0.9996800000
 H          1.2320500000       -0.0196100000       -0.0018200000
 H          2.7059900000       -0.5463800000        2.7343400000
 H          2.7533100000       -2.3062400000        2.6850500000
 H          2.6482000000       -2.5031400000       -1.1904600000
 H          1.2078400000       -2.5570400000       -0.1924200000
 H          4.7963600000       -2.2153200000        1.2617800000
 H          4.7582700000       -0.4540600000        1.2915500000
