18

C          0.99373        0.07981        0.09357
C          2.52494        0.08660        0.03843
C          2.98489        0.00558       -1.42776
N          3.00328        1.35202        0.62102
C          3.08829       -1.10353        0.87241
N          4.55927       -1.15131        0.89947
H          0.56749        0.91426       -0.47560
H          0.62953        0.16045        1.12535
H          0.59030       -0.84788       -0.32762
H          2.54218        0.80819       -2.02835
H          2.68750       -0.94820       -1.87686
H          4.07303        0.09485       -1.52217
H          2.92194        2.10782       -0.05366
H          4.00248        1.23567        0.81585
H          2.70798       -2.05424        0.48089
H          2.73759       -1.02117        1.90871
H          4.90524       -1.39314       -0.02761
H          4.84860       -1.91352        1.51102
