36

C 0.3048 1.4343 -0.4256 
C 0.2688 -0.0294 0.0173 
C 1.4946 -0.7741 -0.5316 
N 0.2056 -0.0529 1.4824 
C -1.0188 -0.7219 -0.495 
N -2.2728 -0.155 -0.0474 
H 0.2848 1.5149 -1.5265 
H 1.2248 1.9326 -0.0688 
H -0.5569 1.985 -0.0134 
H 1.5308 -0.7464 -1.6356 
H 1.4779 -1.8353 -0.2218 
H 2.429 -0.3238 -0.1496 
H 0.3068 -1.0094 1.8268 
H 0.967 0.4922 1.8881 
H -0.9792 -1.7809 -0.1697 
H -1.0066 -0.742 -1.5995 
H -2.4603 0.7316 -0.5137 
H -2.2003 0.0428 0.9527 
C -6.6347 0.8875 4.1797 
C -5.2418 0.2899 3.9728 
C -5.2566 -1.2067 4.3168 
N -4.8469 0.5441 2.5834 
C -4.2025 1.0079 4.8696 
N -4.045 2.4304 4.6552 
H -6.9569 0.785 5.2306 
H -7.3825 0.3749 3.5473 
H -6.6417 1.9563 3.9087 
H -5.5579 -1.3836 5.365 
H -4.2535 -1.6498 4.1754 
H -5.963 -1.751 3.6637 
H -3.9778 0.053 2.3659 
H -5.555 0.1985 1.9349 
H -3.2221 0.5191 4.6997 
H -4.452 0.8291 5.9308 
H -4.8447 2.9458 5.0203 
H -4.0114 2.6045 3.6486 
