36

O        5.417325   -1.341665   -0.868965
C        4.420591   -1.489255    0.110463
C        3.292520   -0.482700   -0.180864
C        3.867829    0.943050   -0.272072
Br        4.752751    1.578651    1.343493
C        2.723839   -0.860652   -1.559114
Br        1.346136    0.328680   -2.262175
C        2.234804   -0.516568    0.927215
Br        1.346316   -2.240564    1.159144
H        6.170610   -1.901084   -0.643781
H        4.814030   -1.285960    1.125656
H        4.000159   -2.513467    0.109218
H        3.075420    1.672775   -0.484141
H        4.629846    0.984659   -1.061080
H        2.256611   -1.854476   -1.516167
H        3.525577   -0.869711   -2.308365
H        1.422486    0.202928    0.745229
H        2.689875   -0.290674    1.900926
O       -0.413137    1.267957    1.203156
C       -1.662821    0.696375    1.483747
C       -2.475737    0.342608    0.206689
C       -2.375121    1.480059   -0.822504
Br       -2.831304    3.248896   -0.124559
C       -1.820321   -0.905669   -0.400756
Br       -2.570612   -1.491052   -2.102401
C       -3.952360    0.120182    0.548446
Br       -4.268553   -1.256215    1.889520
H       -0.534421    2.205855    0.992591
H       -2.270823    1.363834    2.122805
H       -1.469721   -0.221680    2.059290
H       -3.042412    1.312970   -1.678011
H       -1.342983    1.565560   -1.188859
H       -1.924888   -1.761181    0.280506
H       -0.753613   -0.723504   -0.589243
H       -4.513663   -0.196173   -0.342512
H       -4.400588    1.040544    0.949155
