  32

 C          0.2412000000        1.5114000000        0.0000000000
 C          0.0803000000       -0.0080000000        0.0000000000
 C         -0.6664000000       -0.4856000000        1.2575000000
 C         -0.6664000000       -0.4857000000       -1.2575000000
 C          1.4443000000       -0.6828000000        0.0000000000
 O          2.5042000000       -0.1200000000        0.0000000000
 H          0.7986000000        1.8510000000        0.8888000000
 H         -0.7479000000        2.0022000000        0.0000000000
 H          0.7986000000        1.8510000000       -0.8888000000
 H         -0.7507000000       -1.5871000000        1.2857000000
 H         -1.6893000000       -0.0702000000        1.2708000000
 H         -0.1528000000       -0.1563000000        2.1778000000
 H         -0.1528000000       -0.1563000000       -2.1778000000
 H         -1.6894000000       -0.0702000000       -1.2707000000
 H         -0.7507000000       -1.5872000000       -1.2856000000
 H          1.3989000000       -1.8069000000        0.0000000000
 C          2.3092000000        4.1555000000        2.8297000000
 C          2.7522000000        3.1260000000        3.8681000000
 C          1.9755000000        1.8078000000        3.7071000000
 C          4.2627000000        2.8519000000        3.7666000000
 C          2.4796000000        3.6432000000        5.2731000000
 O          1.9884000000        4.7035000000        5.5462000000
 H          1.2313000000        4.3705000000        2.9194000000
 H          2.5065000000        3.7814000000        1.8097000000
 H          2.8479000000        5.1086000000        2.9614000000
 H          2.2605000000        1.0717000000        4.4805000000
 H          2.1911000000        1.3595000000        2.7214000000
 H          0.8860000000        1.9737000000        3.7751000000
 H          4.8471000000        3.7822000000        3.8779000000
 H          4.5025000000        2.4147000000        2.7814000000
 H          4.5989000000        2.1392000000        4.5413000000
 H          2.7833000000        2.9315000000        6.0898000000
