13

C          0.92647        0.10338       -0.00568
C          2.45353        0.08126       -0.00622
C          3.01308        0.29446       -1.40955
Cl         3.06767        1.32810        1.12011
N          2.97922       -1.24975        0.53543
O          2.15431       -2.07733        0.95212
O          4.20448       -1.44300        0.50032
H          0.54808        1.06408       -0.37487
H          0.51220       -0.04672        0.99868
H          0.51490       -0.67955       -0.65327
H          2.65806        1.24007       -1.83520
H          2.70020       -0.51088       -2.08454
H          4.10884        0.32155       -1.42121
