  13

 C          0.9264700000        0.1033800000       -0.0056800000
 C          2.4535300000        0.0812600000       -0.0062200000
 C          3.0130800000        0.2944600000       -1.4095500000
 Cl         3.0676700000        1.3281000000        1.1201100000
 N          2.9792200000       -1.2497500000        0.5354300000
 O          2.1543100000       -2.0773300000        0.9521200000
 O          4.2044800000       -1.4430000000        0.5003200000
 H          0.5480800000        1.0640800000       -0.3748700000
 H          0.5122000000       -0.0467200000        0.9986800000
 H          0.5149000000       -0.6795500000       -0.6532700000
 H          2.6580600000        1.2400700000       -1.8352000000
 H          2.7002000000       -0.5108800000       -2.0845400000
 H          4.1088400000        0.3215500000       -1.4212100000
