18

C          1.05281        0.05551        0.04720
C          2.58846        0.07471        0.04642
C          3.11947       -0.55284        1.34315
C          3.09554       -0.74814       -1.14975
C          3.09544        1.51967       -0.07990
N          2.73317        2.38249        0.91194
O          3.79243        1.92471       -1.00527
H          0.67147       -0.97118        0.09286
H          0.65292        0.52304       -0.85975
H          0.63775        0.59789        0.90346
H          2.81023       -1.60037        1.43098
H          2.75231       -0.02735        2.23175
H          4.21461       -0.52013        1.37581
H          2.74969       -1.78626       -1.09540
H          4.19112       -0.76189       -1.18591
H          2.74305       -0.32759       -2.09896
H          2.18287        2.11791        1.71615
H          3.07395        3.33327        0.84591
