  16

 C         -0.0001000000        0.0000000000        1.5799000000
 C          0.0000000000        0.0000000000        0.0637000000
 Cl        -1.4589000000        0.8362000000       -0.5479000000
 Cl         1.4537000000        0.8452000000       -0.5478000000
 Cl         0.0052000000       -1.6814000000       -0.5478000000
 H         -0.0047000000        1.0382000000        1.9474000000
 H          0.9012000000       -0.5151000000        1.9474000000
 H         -0.8969000000       -0.5230000000        1.9473000000
 C          3.1956000000        1.4462000000        3.6217000000
 C          3.6023000000        1.9425000000        2.2480000000
 Cl         2.8371000000        3.5260000000        1.9186000000
 Cl         5.3801000000        2.1277000000        2.1662000000
 Cl         3.0817000000        0.7742000000        0.9969000000
 H          3.5185000000        2.1715000000        4.3850000000
 H          3.6717000000        0.4724000000        3.8164000000
 H          2.1008000000        1.3338000000        3.6626000000
