38

C -0.6151 1.4651 -0.4908 
C -0.0081 0.1577 0.0271 
C -0.0123 0.1555 1.5615 
C -0.8186 -1.041 -0.5021 
O -2.1517 -1.0707 -0.053 
C 1.4349 0.0393 -0.4955 
O 2.1248 -1.1011 -0.0475 
H -1.685 1.5176 -0.2294 
H -0.5343 1.5318 -1.591 
H -0.1059 2.3452 -0.0583 
H -1.027 0.34 1.9551 
H 0.639 0.9539 1.9627 
H 0.3361 -0.8115 1.9703 
H -0.2831 -1.977 -0.2497 
H -0.8703 -0.9814 -1.6033 
H -2.1674 -1.375 0.8631 
H 1.988 0.9682 -0.2397 
H 1.419 -0.0319 -1.5969 
H 2.335 -0.9933 0.8889 
C -1.825 0.5323 4.9236 
C -0.9208 1.1571 5.9904 
C -1.7358 2.1229 6.8606 
C -0.306 0.0503 6.8684 
O -1.2533 -0.6891 7.6002 
C 0.2215 1.9152 5.2906 
O 1.0999 2.5804 6.1642 
H -2.5822 -0.114 5.3976 
H -1.2404 -0.0925 4.2241 
H -2.3467 1.307 4.3331 
H -2.6185 1.6192 7.2914 
H -2.1103 2.9761 6.2653 
H -1.1356 2.5244 7.6986 
H 0.4593 0.5 7.5307 
H 0.2114 -0.6773 6.219 
H -1.5507 -0.1611 8.3518 
H -0.214 2.618 4.5487 
H 0.8433 1.1981 4.7271 
H 0.648 3.3465 6.5406 
