19

N          0.97506        0.10372        0.22010
C          2.46341        0.05837        0.09408
C          3.00184       -0.66916        1.35010
O          2.64290        0.05088        2.53009
C          2.86549       -0.72708       -1.17823
O          2.27836       -2.03155       -1.17316
C          3.01455        1.50223        0.01546
O          4.43865        1.52084       -0.03019
H          0.64553       -0.86262        0.09543
H          0.59722        0.58508       -0.59811
H          4.09183       -0.76404        1.32663
H          2.58428       -1.67775        1.44188
H          1.69746        0.27379        2.39977
H          3.95261       -0.83003       -1.27008
H          2.50254       -0.21492       -2.07594
H          2.94327       -2.64781       -0.81551
H          2.68953        2.11073        0.86784
H          2.65133        2.00143       -0.89018
H          4.74462        1.49322        0.89622
