26

C        2.609489   -0.276577   -0.196776
C        1.242293   -0.456386   -0.854348
C       -0.000001   -0.349582    0.064645
C       -0.000008   -1.515643    1.066245
C        0.000004    0.971433    0.866580
C        0.000010    2.260270    0.047436
C       -1.242296   -0.456374   -0.854350
C       -2.609492   -0.276566   -0.196776
H        3.412223   -0.434627   -0.937389
H        2.775220   -0.994859    0.624287
H        2.739474    0.739471    0.214079
H        1.209965   -1.445745   -1.348610
H        1.146053    0.282885   -1.670693
H        0.886253   -1.485043    1.723218
H       -0.000012   -2.488916    0.542644
H       -0.886271   -1.485035    1.723215
H        0.876988    0.973145    1.539237
H       -0.876982    0.973153    1.539236
H        0.890792    2.337199   -0.599949
H        0.000015    3.140520    0.713069
H       -0.890772    2.337208   -0.599948
H       -1.209971   -1.445730   -1.348619
H       -1.146053    0.282903   -1.670689
H       -2.775225   -0.994856    0.624279
H       -3.412225   -0.434605   -0.937392
H       -2.739472    0.739479    0.214089
