46

C -1.1638 1.9667 -0.2642 
C -0.7529 0.6448 -0.9157 
C 0.2682 -0.2288 -0.1563 
C -0.1204 -0.4023 1.3223 
O -1.3883 -0.9966 1.5217 
C 0.3393 -1.6157 -0.8346 
O -0.8893 -2.29 -0.877 
C 1.6615 0.4255 -0.2241 
O 2.6776 -0.2977 0.4281 
H -1.8423 2.5243 -0.9315 
H -0.3008 2.6211 -0.0533 
H -1.7026 1.8194 0.6897 
H -0.3371 0.8528 -1.9192 
H -1.6494 0.0291 -1.1036 
H -0.0594 0.5708 1.8531 
H 0.5939 -1.0863 1.8085 
H -2.0744 -0.3944 1.2013 
H 1.1188 -2.2158 -0.3235 
H 0.6649 -1.4874 -1.8823 
H -1.258 -2.2736 0.0222 
H 1.61 1.4638 0.162 
H 1.966 0.4935 -1.2827 
H 2.6417 -0.124 1.3767 
C -2.6081 5.8505 2.056 
C -3.8675 4.9821 2.0749 
C -3.9771 3.9221 3.1915 
C -3.6573 4.5174 4.5739 
O -4.4984 5.5902 4.9508 
C -5.4135 3.3518 3.198 
O -6.4076 4.3208 3.3954 
C -2.9909 2.7717 2.9124 
O -3.0165 1.7374 3.8666 
H -2.6203 6.5183 1.1782 
H -1.6823 5.2528 2.0001 
H -2.5258 6.497 2.9489 
H -3.9578 4.459 1.1046 
H -4.7618 5.6263 2.1327 
H -2.5913 4.823 4.6241 
H -3.8145 3.7477 5.3468 
H -4.3354 6.3419 4.3639 
H -5.4676 2.548 3.9595 
H -5.6192 2.8841 2.2187 
H -6.1519 4.8409 4.1757 
H -1.9639 3.1744 2.7986 
H -3.2594 2.3055 1.9489 
H -2.498 1.9952 4.6385 
