14

C          1.04531        0.06148        0.10071
C          2.56927        0.11183        0.01671
N          3.11873       -0.66301        1.15419
O          3.26217       -1.88720        1.01086
O          3.24773       -0.08581        2.24536
N          3.09224       -0.45870       -1.25409
O          4.31112       -0.64610       -1.38575
O          2.26718       -0.70320       -2.14976
N          3.10311        1.49808        0.08448
O          2.28175        2.42804        0.03185
O          4.32684        1.67767        0.17456
H          0.67317       -0.96994        0.05943
H          0.56602        0.61116       -0.71873
H          0.67769        0.49614        1.03881
