  18

 C          0.9286800000        0.0449600000       -0.0372800000
 C          2.4741900000        0.0612100000       -0.0084300000
 C          2.9534000000        0.9368600000       -1.1815200000
 C          2.9481900000        0.6899800000        1.3190800000
 O          2.5200000000       -0.0711900000        2.4418000000
 C          2.9428700000       -1.3990800000       -0.1586700000
 Br         4.8789900000       -1.6140400000       -0.2320300000
 H          0.5194400000        1.0526600000        0.0975200000
 H          0.5154400000       -0.5916500000        0.7527200000
 H          0.5565700000       -0.3386000000       -0.9944400000
 H          2.5027200000        1.9350500000       -1.1353400000
 H          2.6762100000        0.4940000000       -2.1449500000
 H          4.0391200000        1.0765000000       -1.1745700000
 H          2.5653000000        1.7112000000        1.4330500000
 H          4.0397500000        0.7576000000        1.3629400000
 H          1.5998000000        0.1769600000        2.6348700000
 H          2.5728800000       -1.8402000000       -1.0904800000
 H          2.6049000000       -2.0274500000        0.6714600000
