28

C 0.6116 1.2354 0.4774 
C 0.1522 0.0386 -0.369 
C 1.0681 -1.1705 -0.2096 
C -1.2811 -0.3225 -0.0289 
O -2.1359 0.6704 -0.3323 
O -1.6523 -1.3548 0.4628 
H -0.0392 2.1108 0.3225 
H 1.6424 1.5168 0.2037 
H 0.6035 0.98 1.5517 
H 0.1434 0.3596 -1.4266 
H 1.0781 -1.5176 0.8372 
H 2.0993 -0.9077 -0.5006 
H 0.7337 -2.0138 -0.8351 
H -3.0245 0.3726 -0.0703 
C 5.3387 -1.7573 4.0121 
C 6.3967 -2.5515 3.2313 
C 6.6227 -3.9436 3.8118 
C 6.0123 -2.6342 1.7664 
O 5.9832 -1.4222 1.1844 
O 5.7473 -3.6383 1.1609 
H 5.2145 -0.7422 3.6023 
H 5.6381 -1.67 5.0701 
H 4.3612 -2.27 3.9772 
H 7.3407 -1.9776 3.2672 
H 5.6955 -4.5394 3.7699 
H 6.9432 -3.8694 4.8648 
H 7.3952 -4.4932 3.2502 
H 5.7132 -1.5559 0.2591 
