  34

 Cl         1.9734000000        1.9246000000       -0.4605000000
 C          0.8686000000        1.0772000000        0.6737000000
 C          0.0001000000        0.0001000000        0.0005000000
 C         -0.8690000000       -0.6730000000        1.0768000000
 Cl        -1.9747000000        0.4608000000        1.9236000000
 C         -0.8681000000        0.6728000000       -1.0771000000
 Cl        -1.9708000000       -0.4620000000       -1.9263000000
 C          0.8688000000       -1.0768000000       -0.6722000000
 Cl         1.9713000000       -1.9273000000        0.4619000000
 H          0.2374000000        1.8457000000        1.1405000000
 H          1.5016000000        0.6169000000        1.4449000000
 H         -0.2381000000       -1.1404000000        1.8452000000
 H         -1.5019000000       -1.4436000000        0.6153000000
 H         -0.2367000000        1.1407000000       -1.8447000000
 H         -1.5026000000        1.4429000000       -0.6171000000
 H          1.5037000000       -0.6155000000       -1.4413000000
 H          0.2376000000       -1.8438000000       -1.1416000000
 Cl         6.4123000000        1.7731000000        2.6280000000
 C          4.9062000000        0.8328000000        2.8974000000
 C          4.5604000000       -0.1233000000        1.7424000000
 C          3.2789000000       -0.8919000000        2.1084000000
 Cl         1.8543000000        0.1680000000        2.3771000000
 C          4.3666000000        0.7057000000        0.4607000000
 Cl         3.9165000000       -0.2779000000       -0.9728000000
 C          5.6900000000       -1.1397000000        1.5023000000
 Cl         6.0592000000       -2.1601000000        2.9333000000
 H          4.0975000000        1.5601000000        3.0516000000
 H          5.0540000000        0.2601000000        3.8234000000
 H          3.4267000000       -1.4712000000        3.0301000000
 H          3.0111000000       -1.5779000000        1.2930000000
 H          5.2908000000        1.2414000000        0.2042000000
 H          3.5586000000        1.4356000000        0.6076000000
 H          6.6181000000       -0.6105000000        1.2457000000
 H          5.4276000000       -1.8213000000        0.6816000000
