10

Br       -1.961586    0.858916   -1.633517 
C       -2.550014   -0.002283   -0.001307 
Br       -4.359835   -0.656955   -0.234424 
Br       -1.375666   -1.483805    0.414096 
Br       -2.516463    1.280119    1.453966 
Br        4.360132    0.689405   -0.101039 
C        2.549984    0.002550   -0.000911 
Br        1.960888   -0.520779   -1.770402 
Br        2.516114   -1.540989    1.173878 
Br        1.376420    1.374043    0.697823 
