46

N        1.176710   -1.219013   -1.509550 
C        2.494010   -1.117828   -0.868297 
C        2.709214    0.243628   -0.179065 
C        1.668472    0.500388    0.928277 
N        1.640649   -0.559667    1.939343 
C        4.121465    0.253476    0.441315 
O        4.333376   -0.789645    1.344621 
C        2.603065    1.377198   -1.216852 
O        1.351269    1.428186   -1.856903 
H        0.444377   -1.336844   -0.797265 
H        1.142595   -2.034776   -2.119882 
H        3.264553   -1.222629   -1.653142 
H        2.680365   -1.927355   -0.138977 
H        0.678587    0.673436    0.471372 
H        1.943297    1.444855    1.430443 
H        1.042523   -1.327884    1.623478 
H        1.227254   -0.212658    2.803951 
H        4.281181    1.247937    0.917868 
H        4.879679    0.160589   -0.359275 
H        3.498975   -0.882798    1.859063 
H        3.415488    1.250929   -1.964292 
H        2.766200    2.353473   -0.725049 
H        1.112378    0.481063   -2.040750 
N       -3.022031   -2.192385   -0.998378 
C       -3.707463   -1.090008   -0.310581 
C       -2.734555    0.004902    0.158256 
C       -2.034067    0.638223   -1.069708 
N       -1.362159    1.907360   -0.773264 
C       -3.550964    1.085892    0.902373 
O       -2.750820    2.009777    1.570872 
C       -1.719134   -0.593205    1.147895 
O       -0.915071   -1.611604    0.591966 
H       -2.740515   -1.919398   -1.940868 
H       -3.635698   -3.000750   -1.093155 
H       -4.202321   -1.519872    0.577810 
H       -4.506621   -0.633815   -0.932348 
H       -2.802737    0.790297   -1.852701 
H       -1.301614   -0.077546   -1.481947 
H       -1.769236    2.670095   -1.310740 
H       -0.365010    1.870571   -1.022344 
H       -4.202108    0.603982    1.655498 
H       -4.229099    1.577474    0.165742 
H       -2.054611    2.260250    0.918805 
H       -2.273754   -0.979216    2.028509 
H       -1.053618    0.199533    1.517788 
H       -1.522978   -2.172714    0.049224 
