30

C 0.2855 -0.646 -1.2592 
C -0.2056 0.0728 0.0 
C 0.2855 -0.646 1.2592 
C 0.2685 1.5304 0.0 
S -2.0547 0.1579 0.0 
H 1.3912 -0.664 -1.2812 
H -0.0732 -0.1394 -2.1707 
H -0.069 -1.6914 -1.2864 
H 1.3912 -0.664 1.2812 
H -0.069 -1.6914 1.2864 
H -0.0732 -0.1394 2.1707 
H 1.3727 1.5621 0.0 
H -0.0892 2.0684 0.895 
H -0.0892 2.0684 -0.895 
H -2.271 -1.1791 0.0 
C 3.209 -3.6058 -1.9398 
C 3.1644 -3.329 -3.4447 
C 1.9947 -2.4038 -3.7899 
C 4.4873 -2.7115 -3.9118 
S 3.0093 -4.9206 -4.377 
H 3.341 -2.6599 -1.3819 
H 4.0435 -4.2803 -1.6849 
H 2.2716 -4.0742 -1.5918 
H 2.1054 -1.4369 -3.2643 
H 1.031 -2.8462 -3.4818 
H 1.9501 -2.2081 -4.8743 
H 4.6515 -1.7494 -3.3945 
H 4.478 -2.5184 -4.9986 
H 5.3411 -3.3728 -3.6836 
H 1.8229 -5.2974 -3.8431 
