17

C          0.97750       -0.02630        0.11747
C          2.51191       -0.03754        0.12182
C          3.04569       -1.13676       -0.80690
C          3.01369        1.32451       -0.39028
C          3.03167       -0.25729        1.54736
O          2.65428       -1.42869        2.10747
O          3.73109        0.53670        2.15935
H          0.58728        0.18078       -0.88550
H          0.58765        0.74089        0.79616
H          0.55914       -0.98606        0.43872
H          2.72788       -0.96779       -1.84199
H          2.68930       -2.13001       -0.51398
H          4.14128       -1.16795       -0.79094
H          2.65745        1.52415       -1.40708
H          4.10910        1.36418       -0.40593
H          2.66684        2.14253        0.25193
H          2.09844       -1.99604        1.54398
