  34

 C          0.4368000000       -0.6572000000       -1.2626000000
 C          0.0214000000        0.1210000000        0.0000000000
 C          0.4367000000       -0.6569000000        1.2628000000
 C          0.6856000000        1.4999000000       -0.0002000000
 C         -1.5055000000        0.3150000000        0.0000000000
 O         -2.2421000000       -0.8152000000        0.0000000000
 O         -2.0522000000        1.3789000000        0.0000000000
 H          1.5358000000       -0.7522000000       -1.2985000000
 H          0.1090000000       -0.1346000000       -2.1775000000
 H          0.0222000000       -1.6813000000       -1.2907000000
 H          1.5358000000       -0.7520000000        1.2987000000
 H          0.0220000000       -1.6809000000        1.2912000000
 H          0.1090000000       -0.1340000000        2.1775000000
 H          1.7840000000        1.3897000000       -0.0001000000
 H          0.3901000000        2.0813000000        0.8879000000
 H          0.3901000000        2.0811000000       -0.8884000000
 H         -1.6788000000       -1.6022000000        0.0000000000
 C          0.4990000000        2.7757000000       -5.8837000000
 C          0.0965000000        3.9810000000       -5.0134000000
 C          0.1680000000        3.6050000000       -3.5215000000
 C          1.0326000000        5.1586000000       -5.2957000000
 C         -1.3409000000        4.4055000000       -5.3638000000
 O         -2.2942000000        3.4709000000       -5.1694000000
 O         -1.6444000000        5.4832000000       -5.7845000000
 H          1.5478000000        2.4999000000       -5.6784000000
 H          0.4125000000        3.0142000000       -6.9576000000
 H         -0.1162000000        1.8792000000       -5.6854000000
 H          1.2074000000        3.3527000000       -3.2489000000
 H         -0.4548000000        2.7272000000       -3.2703000000
 H         -0.1582000000        4.4444000000       -2.8839000000
 H          2.0728000000        4.8806000000       -5.0523000000
 H          0.7535000000        6.0386000000       -4.6943000000
 H          0.9862000000        5.4553000000       -6.3558000000
 H         -1.9158000000        2.6483000000       -4.8276000000
