15

C          1.02702       -0.05450       -0.06996
C          2.55567       -0.05134       -0.02695
N          3.04460        1.33743        0.03104
C          3.10140       -0.87965        1.16236
N          2.72745       -0.33027        2.47109
H          0.66047        0.47454       -0.95673
H          0.59083        0.43110        0.81030
H          0.64393       -1.07936       -0.11294
H          2.93121       -0.50242       -0.95338
H          2.63893        1.77706        0.85882
H          2.66399        1.85412       -0.75893
H          4.19599       -0.92027        1.10288
H          2.73506       -1.90982        1.09088
H          3.14119        0.59960        2.54867
H          3.17543       -0.88958        3.19784
