  15

 C          1.0270200000       -0.0545000000       -0.0699600000
 C          2.5556700000       -0.0513400000       -0.0269500000
 N          3.0446000000        1.3374300000        0.0310400000
 C          3.1014000000       -0.8796500000        1.1623600000
 N          2.7274500000       -0.3302700000        2.4710900000
 H          0.6604700000        0.4745400000       -0.9567300000
 H          0.5908300000        0.4311000000        0.8103000000
 H          0.6439300000       -1.0793600000       -0.1129400000
 H          2.9312100000       -0.5024200000       -0.9533800000
 H          2.6389300000        1.7770600000        0.8588200000
 H          2.6639900000        1.8541200000       -0.7589300000
 H          4.1959900000       -0.9202700000        1.1028800000
 H          2.7350600000       -1.9098200000        1.0908800000
 H          3.1411900000        0.5996000000        2.5486700000
 H          3.1754300000       -0.8895800000        3.1978400000
