15

N        0.217153    1.401080   -0.725822
C        0.040711    0.710925    0.552845
C       -1.304753   -0.023470    0.584803
O       -1.497832   -0.865552   -0.515153
C        1.214190   -0.275753    0.681851
O        1.302367   -1.039796   -0.495286
H        0.706464    2.287703   -0.629774
H       -0.665213    1.553793   -1.209942
H        0.055176    1.403297    1.418408
H       -2.127289    0.714545    0.573201
H       -1.376362   -0.572624    1.548494
H       -0.672900   -1.367718   -0.642768
H        1.064788   -0.966577    1.528429
H        2.156444    0.282272    0.865196
H        1.201656   -0.369672   -1.203973
