15

N          0.97570        0.10518       -0.13776
C          2.45633        0.03256       -0.08281
C          2.94180       -0.50520        1.27100
O          2.45477        0.31623        2.33170
C          2.97960       -0.82557       -1.24267
O          2.49839       -0.30382       -2.47933
H          0.67269        0.61633        0.69782
H          0.59466       -0.83336        0.00687
H          2.80666        1.06364       -0.21104
H          4.03562       -0.52061        1.31985
H          2.57883       -1.52394        1.44437
H          2.85014        1.19893        2.22007
H          2.64065       -1.86381       -1.15846
H          4.07350       -0.82020       -1.27135
H          1.58669       -0.00126       -2.28631
