16

C        0.510341    1.403174   -0.582451
C        0.395964   -0.002434    0.006699
C        1.636832   -0.840975   -0.291858
O        0.186007    0.078986    1.416426
C       -0.871450   -0.704904   -0.497636
O       -2.026419   -0.027326   -0.097669
H        1.358064    1.949721   -0.128290
H       -0.418648    1.965315   -0.396207
H        0.682252    1.364820   -1.671668
H        1.772114   -0.984340   -1.378167
H        1.555551   -1.830392    0.188688
H        2.543341   -0.343847    0.098341
H        0.842476    0.675460    1.799524
H       -0.862792   -1.749396   -0.120145
H       -0.869098   -0.742456   -1.599629
H       -1.910078    0.152669    0.848973
