50

C       -5.170817    0.311802   -0.886236
C       -4.302948   -0.518466    0.058324
C       -2.770909   -0.334127   -0.049520
C       -2.364087    1.150957    0.038083
C       -2.564349    1.839773    1.385419
C       -2.168104   -1.178473    1.100654
O       -0.765737   -1.320502    1.079538
C       -2.281697   -0.895568   -1.405242
O       -0.873915   -0.951494   -1.523727
H       -4.895687    0.163578   -1.944661
H       -5.104055    1.390927   -0.668618
H       -6.229897    0.021967   -0.778801
H       -4.530473   -1.589470   -0.100092
H       -4.612113   -0.303971    1.098157
H       -2.918750    1.702945   -0.740791
H       -1.312124    1.246038   -0.265070
H       -1.880626    1.442838    2.154729
H       -3.599698    1.736282    1.755802
H       -2.350683    2.918240    1.295191
H       -2.571775   -2.203824    1.026609
H       -2.505355   -0.774092    2.074120
H       -0.296063   -0.497465    1.351510
H       -2.644320   -0.265091   -2.233846
H       -2.706082   -1.910867   -1.550746
H       -0.563470   -1.355317   -0.684494
C        5.127590   -0.117542   -0.992682
C        4.285417    0.550985    0.093256
C        2.755584    0.350984    0.006296
C        2.369179   -1.137140   -0.091715
C        2.778758   -2.032657    1.073497
C        2.155529    1.002968    1.272260
O        0.745771    0.952039    1.336336
C        2.220457    1.088872   -1.246934
O        0.817136    1.247699   -1.283538
H        6.192112    0.139474   -0.859019
H        4.836697    0.207111   -2.006341
H        5.048396   -1.217175   -0.955746
H        4.493056    1.637670    0.088396
H        4.632501    0.190198    1.078913
H        2.783471   -1.544242   -1.031801
H        1.278403   -1.199394   -0.196757
H        3.869548   -2.023575    1.244789
H        2.482090   -3.075167    0.870286
H        2.279693   -1.735256    2.010977
H        2.490254    2.059650    1.320539
H        2.539253    0.504262    2.177084
H        0.447342    1.294040    0.466320
H        2.568696    0.575201   -2.163026
H        2.637092    2.111715   -1.265252
H        0.338911    0.436634   -1.569997
