  50

 C         -2.2731000000       -0.9568000000        0.0846000000
 C         -1.0780000000       -0.5197000000        0.9305000000
 C          0.2462000000       -0.2634000000        0.1787000000
 C          0.0709000000        0.6859000000       -1.0242000000
 C         -0.4609000000        2.0841000000       -0.7137000000
 C          1.2271000000        0.3283000000        1.2124000000
 O          2.5194000000        0.5995000000        0.6992000000
 C          0.8214000000       -1.6067000000       -0.3287000000
 O          2.0207000000       -1.4829000000       -1.0390000000
 H         -3.1375000000       -1.1761000000        0.7340000000
 H         -2.0605000000       -1.8685000000       -0.4986000000
 H         -2.5860000000       -0.1707000000       -0.6235000000
 H         -0.8885000000       -1.2866000000        1.7055000000
 H         -1.3581000000        0.3950000000        1.4855000000
 H         -0.5983000000        0.1980000000       -1.7547000000
 H          1.0387000000        0.7590000000       -1.5495000000
 H         -1.4488000000        2.0523000000       -0.2224000000
 H         -0.5735000000        2.6675000000       -1.6433000000
 H          0.2158000000        2.6556000000       -0.0530000000
 H          1.3809000000       -0.4015000000        2.0250000000
 H          0.7985000000        1.2384000000        1.6760000000
 H          2.4718000000        1.3668000000        0.1126000000
 H          0.1028000000       -2.0867000000       -1.0146000000
 H          0.9377000000       -2.2860000000        0.5456000000
 H          2.6094000000       -0.9200000000       -0.5072000000
 C         -2.6268000000        5.1429000000       -3.0543000000
 C         -3.0792000000        6.0902000000       -4.1647000000
 C         -3.6374000000        5.4372000000       -5.4478000000
 C         -4.7392000000        4.3988000000       -5.1534000000
 C         -5.9793000000        4.9131000000       -4.4241000000
 C         -4.1799000000        6.5872000000       -6.3218000000
 O         -4.7088000000        6.1708000000       -7.5684000000
 C         -2.4896000000        4.7393000000       -6.2146000000
 O         -2.8943000000        4.1013000000       -7.3924000000
 H         -2.1854000000        5.7172000000       -2.2222000000
 H         -1.8627000000        4.4274000000       -3.4016000000
 H         -3.4683000000        4.5611000000       -2.6411000000
 H         -2.2283000000        6.7367000000       -4.4522000000
 H         -3.8416000000        6.7760000000       -3.7504000000
 H         -4.2911000000        3.5757000000       -4.5694000000
 H         -5.0317000000        3.9269000000       -6.1072000000
 H         -5.7300000000        5.3575000000       -3.4450000000
 H         -6.6873000000        4.0870000000       -4.2407000000
 H         -6.5217000000        5.6812000000       -5.0045000000
 H         -3.3541000000        7.2756000000       -6.5683000000
 H         -4.9324000000        7.1769000000       -5.7624000000
 H         -5.5485000000        5.7151000000       -7.4189000000
 H         -2.0349000000        3.9596000000       -5.5800000000
 H         -1.6976000000        5.4953000000       -6.4160000000
 H         -3.4374000000        4.7378000000       -7.8885000000
