15

C        0.838486   -0.724485   -1.259223 
C        0.347443   -0.005656    0.000000 
C        0.838486   -0.724486    1.259222 
C        0.821467    1.451921    0.000001 
S       -1.501673    0.079443    0.000000 
H        1.944237   -0.742506   -1.281209 
H        0.479836   -0.217944   -2.170669 
H        0.483980   -1.769927   -1.286364 
H        1.944237   -0.742508    1.281208 
H        0.483980   -1.769928    1.286362 
H        0.479836   -0.217945    2.170669 
H        1.925747    1.483642    0.000001 
H        0.463812    1.989925    0.894968 
H        0.463813    1.989926   -0.894967 
H       -1.718003   -1.257586   -0.000001 
