  30

 C          0.2855000000       -0.6460000000       -1.2592000000
 C         -0.2056000000        0.0728000000        0.0000000000
 C          0.2855000000       -0.6460000000        1.2592000000
 C          0.2685000000        1.5304000000        0.0000000000
 S         -2.0547000000        0.1579000000        0.0000000000
 H          1.3912000000       -0.6640000000       -1.2812000000
 H         -0.0732000000       -0.1394000000       -2.1707000000
 H         -0.0690000000       -1.6914000000       -1.2864000000
 H          1.3912000000       -0.6640000000        1.2812000000
 H         -0.0690000000       -1.6914000000        1.2864000000
 H         -0.0732000000       -0.1394000000        2.1707000000
 H          1.3727000000        1.5621000000        0.0000000000
 H         -0.0892000000        2.0684000000        0.8950000000
 H         -0.0892000000        2.0684000000       -0.8950000000
 H         -2.2710000000       -1.1791000000        0.0000000000
 C          3.2090000000       -3.6058000000       -1.9398000000
 C          3.1644000000       -3.3290000000       -3.4447000000
 C          1.9947000000       -2.4038000000       -3.7899000000
 C          4.4873000000       -2.7115000000       -3.9118000000
 S          3.0093000000       -4.9206000000       -4.3770000000
 H          3.3410000000       -2.6599000000       -1.3819000000
 H          4.0435000000       -4.2803000000       -1.6849000000
 H          2.2716000000       -4.0742000000       -1.5918000000
 H          2.1054000000       -1.4369000000       -3.2643000000
 H          1.0310000000       -2.8462000000       -3.4818000000
 H          1.9501000000       -2.2081000000       -4.8743000000
 H          4.6515000000       -1.7494000000       -3.3945000000
 H          4.4780000000       -2.5184000000       -4.9986000000
 H          5.3411000000       -3.3728000000       -3.6836000000
 H          1.8229000000       -5.2974000000       -3.8431000000
