19

C       -0.858360    1.648333   -1.045566
C       -0.073433    0.562791   -0.300236
C        1.169934    0.166764   -1.120278
O        1.964440   -0.813170   -0.495337
C        0.351065    1.081379    1.095402
O        0.929063    0.091905    1.890112
C       -0.927178   -0.678701   -0.093005
O       -2.100948   -0.419446    0.484127
O       -0.603369   -1.802060   -0.402308
H       -1.170353    1.303332   -2.046418
H       -0.227208    2.544547   -1.177425
H       -1.761082    1.940441   -0.486230
H        1.806960    1.058349   -1.245349
H        0.857653   -0.165264   -2.129879
H        1.433475   -1.629182   -0.495009
H       -0.535625    1.455261    1.633289
H        1.033545    1.945251    0.936261
H        1.632212   -0.324165    1.358320
H       -2.555243   -1.269791    0.621789
