17

C          0.96771        0.07561       -0.06296
C          2.50638        0.04622       -0.05129
C          3.00838       -1.12330       -0.91544
C          3.01254        1.35898       -0.68579
C          3.06621       -0.01788        1.38174
Br         2.54056       -1.60823        2.37623
H          0.58595        0.21731       -1.08124
H          0.58386        0.89770        0.55088
H          0.53548       -0.85687        0.31291
H          2.66465       -1.02114       -1.95151
H          2.64520       -2.09001       -0.55202
H          4.10351       -1.15957       -0.93269
H          2.64206        1.47496       -1.71115
H          4.10779        1.38288       -0.72485
H          2.67990        2.23064       -0.11125
H          2.72380        0.82904        1.98383
H          4.16114       -0.02161        1.38385
