  44

 N          2.0524000000       -1.1215000000       -0.2453000000
 C          0.7928000000       -0.7644000000       -0.8964000000
 C         -0.1238000000        0.0712000000        0.0157000000
 C          0.7148000000        1.0046000000        0.9133000000
 O          1.7683000000        1.6184000000        0.2361000000
 C         -1.0444000000        0.8879000000       -0.9075000000
 O         -2.2320000000        1.3248000000       -0.2797000000
 C         -0.9826000000       -0.8326000000        0.9217000000
 O         -2.0189000000       -1.4820000000        0.2420000000
 H          2.6536000000       -1.6393000000       -0.8851000000
 H          1.8932000000       -1.7227000000        0.5639000000
 H          0.2101000000       -1.6368000000       -1.2566000000
 H          1.0548000000       -0.1628000000       -1.7848000000
 H          1.0789000000        0.4329000000        1.7941000000
 H          0.0700000000        1.8074000000        1.3185000000
 H          2.3690000000        0.8795000000        0.0112000000
 H         -1.3773000000        0.2597000000       -1.7496000000
 H         -0.4698000000        1.7364000000       -1.3275000000
 H         -2.0155000000        1.9855000000        0.3917000000
 H         -1.3752000000       -0.2302000000        1.7672000000
 H         -0.3517000000       -1.6214000000        1.3696000000
 H         -2.6659000000       -0.7967000000        0.0094000000
 N         -6.8816000000       -5.2233000000       -5.1990000000
 C         -5.6095000000       -5.3654000000       -4.4921000000
 C         -5.6022000000       -4.6267000000       -3.1414000000
 C         -6.9990000000       -4.6829000000       -2.4886000000
 O         -7.6049000000       -5.9348000000       -2.5932000000
 C         -4.5597000000       -5.3304000000       -2.2556000000
 O         -4.0802000000       -4.5260000000       -1.1980000000
 C         -5.2065000000       -3.1475000000       -3.3170000000
 O         -3.8457000000       -2.9611000000       -3.5838000000
 H         -6.8706000000       -5.7541000000       -6.0690000000
 H         -7.0599000000       -4.2497000000       -5.4479000000
 H         -4.7311000000       -5.0187000000       -5.0740000000
 H         -5.4683000000       -6.4452000000       -4.3079000000
 H         -7.6384000000       -3.8864000000       -2.9267000000
 H         -6.9147000000       -4.4455000000       -1.4111000000
 H         -7.7711000000       -6.0392000000       -3.5518000000
 H         -3.6695000000       -5.5785000000       -2.8560000000
 H         -4.9890000000       -6.2806000000       -1.8823000000
 H         -4.7909000000       -4.3783000000       -0.5598000000
 H         -5.5186000000       -2.5793000000       -2.4161000000
 H         -5.7608000000       -2.7101000000       -4.1668000000
 H         -3.3736000000       -3.1755000000       -2.7631000000
