16

C       -1.033714   -0.726923    1.260711
C       -0.590368    0.028172    0.000000
C       -1.033716   -0.726915   -1.260715
N       -1.205850    1.342852    0.000005
C        0.942406    0.137622   -0.000000
O        1.556390   -1.056565   -0.000001
O        1.557958    1.171311   -0.000000
H       -0.709203   -0.194588    2.172763
H       -0.613286   -1.744530    1.286941
H       -2.134369   -0.785704    1.272054
H       -0.709203   -0.194576   -2.172764
H       -2.134371   -0.785693   -1.272059
H       -0.613290   -1.744523   -1.286950
H       -0.891470    1.873831   -0.813226
H       -0.891467    1.873826    0.813237
H        2.515182   -0.887724   -0.000001
