17

C       -0.855333    1.740818    0.918066
C        0.000000    0.854187   -0.000000
C        0.855336    1.740813   -0.918067
C        0.887664   -0.010915    0.904523
Cl        1.997724   -1.107929    0.009102
C       -0.887666   -0.010914   -0.904522
Cl       -1.997725   -1.107928   -0.009101
H       -0.215638    2.396815    1.533904
H       -1.485962    1.136744    1.590890
H       -1.520754    2.385734    0.317775
H        1.520766    2.385721   -0.317777
H        0.215644    2.396818   -1.533900
H        1.485957    1.136735   -1.590897
H        0.272824   -0.654389    1.550163
H        1.524087    0.627917    1.535380
H       -0.272827   -0.654387   -1.550165
H       -1.524090    0.627920   -1.535378
