9

C          0.93955        0.07128       -0.02548
C          2.45384        0.07400       -0.01877
O          2.93552       -0.17861        1.29282
H          0.55475        0.25479       -1.03248
H          0.54755        0.84119        0.64719
H          0.55407       -0.88964        0.33098
H          2.84526        1.03825       -0.35725
H          2.84083       -0.70660       -0.68019
H          2.59594        0.52577        1.87080
