  34

 C         -0.4312000000       -0.8492000000        1.5287000000
 C         -0.0137000000       -0.0024000000        0.3178000000
 C          0.4059000000       -0.8874000000       -0.8653000000
 Cl         1.7916000000       -1.9676000000       -0.4930000000
 C         -1.1735000000        0.9023000000       -0.1356000000
 Cl        -2.6461000000        0.0043000000       -0.6379000000
 C          1.1428000000        0.9004000000        0.7768000000
 Cl         1.7595000000        2.0170000000       -0.4916000000
 H         -1.2665000000       -1.5167000000        1.2619000000
 H         -0.7637000000       -0.2043000000        2.3609000000
 H          0.4074000000       -1.4708000000        1.8809000000
 H          0.7144000000       -0.2694000000       -1.7210000000
 H         -0.4284000000       -1.5338000000       -1.1705000000
 H         -0.8765000000        1.5247000000       -0.9912000000
 H         -1.4779000000        1.5639000000        0.6900000000
 H          1.9969000000        0.2823000000        1.0879000000
 H          0.8285000000        1.5298000000        1.6230000000
 C         -2.4842000000       -7.6286000000        1.5402000000
 C         -2.7029000000       -6.8331000000        0.2451000000
 C         -4.1934000000       -6.7527000000       -0.1167000000
 Cl        -4.9552000000       -8.3597000000       -0.3674000000
 C         -2.1572000000       -5.4013000000        0.3908000000
 Cl        -2.9407000000       -4.4513000000        1.6988000000
 C         -1.8983000000       -7.5391000000       -0.8583000000
 Cl        -1.9822000000       -6.7359000000       -2.4657000000
 H         -3.0346000000       -7.1644000000        2.3745000000
 H         -1.4137000000       -7.6507000000        1.8095000000
 H         -2.8387000000       -8.6657000000        1.4284000000
 H         -4.3352000000       -6.1919000000       -1.0519000000
 H         -4.7532000000       -6.2573000000        0.6884000000
 H         -2.2940000000       -4.8310000000       -0.5385000000
 H         -1.0826000000       -5.4318000000        0.6282000000
 H         -2.2792000000       -8.5603000000       -1.0015000000
 H         -0.8329000000       -7.5884000000       -0.5875000000
