16

C        1.736897   -0.000024   -1.539652 
C        2.350914   -0.000003   -0.154978 
Cl        1.831573    1.456733    0.749695 
Cl        1.831599   -1.456730    0.749727 
Cl        4.135574    0.000012   -0.269032 
H        0.639044   -0.000034   -1.460199 
H        2.065020   -0.899118   -2.084436 
H        2.065005    0.899062   -2.084457 
C       -1.736906   -0.000024    1.539656 
C       -2.350915   -0.000003    0.154978 
Cl       -1.831591    1.456747   -0.749682 
Cl       -1.831573   -1.456716   -0.749733 
Cl       -4.135576   -0.000016    0.269022 
H       -0.639053   -0.000021    1.460210 
H       -2.065023   -0.899123    2.084434 
H       -2.065026    0.899057    2.084462 
