16

C -0.0001 0.0 1.5799 
C 0.0 0.0 0.0637 
Cl -1.4589 0.8362 -0.5479 
Cl 1.4537 0.8452 -0.5478 
Cl 0.0052 -1.6814 -0.5478 
H -0.0047 1.0382 1.9474 
H 0.9012 -0.5151 1.9474 
H -0.8969 -0.523 1.9473 
C 3.1956 1.4462 3.6217 
C 3.6023 1.9425 2.248 
Cl 2.8371 3.526 1.9186 
Cl 5.3801 2.1277 2.1662 
Cl 3.0817 0.7742 0.9969 
H 3.5185 2.1715 4.385 
H 3.6717 0.4724 3.8164 
H 2.1008 1.3338 3.6626 
