  30

 C         -0.1282000000        0.7613000000        1.2703000000
 C          0.0000000000       -0.0535000000        0.0000000000
 C          0.1283000000        0.7613000000       -1.2703000000
 N          1.1910000000       -0.9983000000        0.1693000000
 O          2.1688000000       -0.7875000000       -0.5021000000
 O          1.0664000000       -1.8531000000        1.0113000000
 N         -1.1910000000       -0.9982000000       -0.1693000000
 O         -2.1687000000       -0.7874000000        0.5021000000
 O         -1.0664000000       -1.8530000000       -1.0113000000
 H          0.7894000000        1.3577000000        1.4027000000
 H         -0.2683000000        0.1054000000        2.1416000000
 H         -0.9888000000        1.4410000000        1.1904000000
 H          0.9889000000        1.4409000000       -1.1904000000
 H         -0.7893000000        1.3578000000       -1.4026000000
 H          0.2684000000        0.1054000000       -2.1416000000
 C          0.1264000000       -4.0257000000        4.3251000000
 C         -1.1867000000       -3.6920000000        3.6481000000
 C         -1.1261000000       -2.5334000000        2.6744000000
 N         -1.6939000000       -4.9611000000        2.9611000000
 O         -1.6920000000       -4.9809000000        1.7565000000
 O         -2.0061000000       -5.8656000000        3.6955000000
 N         -2.2725000000       -3.3792000000        4.6791000000
 O         -1.9189000000       -3.1461000000        5.8068000000
 O         -3.4014000000       -3.3400000000        4.2559000000
 H          0.8531000000       -4.3344000000        3.5558000000
 H         -0.0059000000       -4.8396000000        5.0524000000
 H          0.5119000000       -3.1376000000        4.8462000000
 H         -0.3657000000       -2.7336000000        1.9058000000
 H         -0.8471000000       -1.6210000000        3.2265000000
 H         -2.0996000000       -2.3835000000        2.1858000000
