  36

 C         -0.5114000000        1.5444000000       -0.2947000000
 C          0.0768000000        0.1665000000        0.0192000000
 N          0.1378000000       -0.1258000000        1.4542000000
 C         -0.7646000000       -0.9377000000       -0.6239000000
 O         -2.0315000000       -0.9582000000       -0.0045000000
 C          1.5250000000        0.0574000000       -0.4993000000
 O          2.1250000000       -1.1185000000       -0.0511000000
 H         -1.5631000000        1.5967000000        0.0320000000
 H         -0.4753000000        1.7572000000       -1.3784000000
 H          0.0576000000        2.3375000000        0.2234000000
 H         -0.7846000000       -0.4145000000        1.7824000000
 H          0.4184000000        0.6996000000        1.9841000000
 H         -0.2347000000       -1.8991000000       -0.4915000000
 H         -0.8514000000       -0.7356000000       -1.7106000000
 H         -2.5061000000       -1.7512000000       -0.2806000000
 H          2.0835000000        0.9583000000       -0.1577000000
 H          1.5433000000        0.0632000000       -1.6037000000
 H          1.7635000000       -1.2354000000        0.8510000000
 C          2.6821000000        7.3780000000        0.0477000000
 C          3.6954000000        6.2309000000        0.0285000000
 N          4.9872000000        6.6067000000       -0.5533000000
 C          3.9750000000        5.7351000000        1.4486000000
 O          4.6317000000        6.7588000000        2.1627000000
 C          3.1738000000        5.0525000000       -0.8186000000
 O          4.1670000000        4.0901000000       -0.9942000000
 H          3.0385000000        8.1946000000        0.6971000000
 H          1.7010000000        7.0387000000        0.4262000000
 H          2.5297000000        7.7795000000       -0.9706000000
 H          5.5369000000        7.1170000000        0.1390000000
 H          4.8608000000        7.2111000000       -1.3654000000
 H          4.5992000000        4.8249000000        1.3816000000
 H          3.0136000000        5.4625000000        1.9291000000
 H          4.9611000000        6.4022000000        2.9962000000
 H          2.8190000000        5.4577000000       -1.7934000000
 H          2.3054000000        4.5770000000       -0.3289000000
 H          4.9888000000        4.6155000000       -1.0760000000
