14

C          1.03290       -0.05612        0.04460
C          2.55883       -0.08069        0.07934
C          3.10719        1.05530        0.93358
C          3.05796       -1.40826        0.61991
O          4.28398       -1.74170        0.15267
O          2.45320       -2.11252        1.41263
H          0.66903        0.88134       -0.38814
H          0.60578       -0.15463        1.04894
H          0.64572       -0.88247       -0.56161
H          2.91107        0.02860       -0.95376
H          2.77645        0.96510        1.97449
H          2.77479        2.02640        0.55287
H          4.20248        1.04986        0.93641
H          4.66590       -1.09007       -0.46502
