  18

 C          0.9937300000        0.0798100000        0.0935700000
 C          2.5249400000        0.0866000000        0.0384300000
 C          2.9848900000        0.0055800000       -1.4277600000
 N          3.0032800000        1.3520200000        0.6210200000
 C          3.0882900000       -1.1035300000        0.8724100000
 N          4.5592700000       -1.1513100000        0.8994700000
 H          0.5674900000        0.9142600000       -0.4756000000
 H          0.6295300000        0.1604500000        1.1253500000
 H          0.5903000000       -0.8478800000       -0.3276200000
 H          2.5421800000        0.8081900000       -2.0283500000
 H          2.6875000000       -0.9482000000       -1.8768600000
 H          4.0730300000        0.0948500000       -1.5221700000
 H          2.9219400000        2.1078200000       -0.0536600000
 H          4.0024800000        1.2356700000        0.8158500000
 H          2.7079800000       -2.0542400000        0.4808900000
 H          2.7375900000       -1.0211700000        1.9087100000
 H          4.9052400000       -1.3931400000       -0.0276100000
 H          4.8486000000       -1.9135200000        1.5110200000
