20

O       -2.423576   -0.152145   -0.369828 
C       -1.249854   -0.783287   -0.868739 
C       -0.006317   -0.030653   -0.390147 
C        1.241252   -0.776618   -0.900701 
O        1.389593   -2.037998   -0.310196 
C       -0.009285    1.426389   -0.917197 
O        1.160827    2.128188   -0.615750 
C        0.083298    0.045589    1.144631 
O       -1.052459    0.205019    1.808312 
O        1.146392    0.031914    1.716798 
H       -3.199546   -0.697655   -0.554526 
H       -1.264470   -0.780377   -1.974743 
H       -1.183673   -1.831501   -0.524822 
H        2.123772   -0.136079   -0.739995 
H        1.140063   -0.937506   -1.988163 
H        1.727706   -1.895859    0.586976 
H       -0.912829    1.947593   -0.543396 
H       -0.079577    1.397974   -2.018466 
H        1.342900    2.074692    0.334831 
H       -1.815133    0.170382    1.180544 
