58

C -2.8396 -0.5846 0.0115 
C -1.3581 -0.8527 -0.2587 
C -0.38 0.3265 -0.0047 
C -0.5784 1.3738 -1.1165 
C -0.7251 0.9983 1.3372 
C 1.1177 -0.2006 0.0049 
C 1.3862 -1.1672 -1.1644 
C 2.1209 0.9617 -0.1224 
C 1.44 -0.9474 1.3131 
H -3.0406 -0.4086 1.0815 
H -3.4415 -1.4573 -0.2951 
H -3.219 0.2869 -0.5496 
H -1.2519 -1.1765 -1.3088 
H -1.0564 -1.7181 0.3579 
H -1.6458 1.6328 -1.2204 
H -0.2323 1.008 -2.0988 
H -0.0425 2.3118 -0.895 
H -1.6808 1.5445 1.2635 
H 0.0426 1.7329 1.6349 
H -0.8266 0.2648 2.1552 
H 1.0899 -0.7377 -2.1372 
H 0.8587 -2.1275 -1.0415 
H 2.4659 -1.3932 -1.2216 
H 1.9393 1.7567 0.6214 
H 2.0965 1.4212 -1.1246 
H 3.1478 0.5892 0.0412 
H 0.7084 -1.7437 1.5339 
H 1.4717 -0.2662 2.1799 
H 2.4322 -1.4264 1.2369 
C 2.2769 -5.9882 7.0 
C 3.373 -4.9382 6.8106 
C 4.1921 -4.5522 8.0723 
C 3.2948 -3.7097 8.9982 
C 4.5858 -5.8289 8.8379 
C 5.4858 -3.7331 7.6522 
C 5.1574 -2.6527 6.6041 
C 6.1143 -3.0191 8.8641 
C 6.5623 -4.6565 7.0511 
H 2.6906 -6.9774 7.2582 
H 1.7048 -6.1072 6.0638 
H 1.5575 -5.7083 7.7888 
H 2.9085 -4.0244 6.4009 
H 4.059 -5.3075 6.0275 
H 2.3311 -4.2177 9.173 
H 3.0699 -2.7177 8.5694 
H 3.7581 -3.5554 9.987 
H 3.6999 -6.2882 9.3084 
H 5.3042 -5.6138 9.6474 
H 5.0385 -6.5872 8.1765 
H 4.3238 -2.0025 6.9221 
H 4.8958 -3.0869 5.625 
H 6.0376 -2.0037 6.4484 
H 6.2949 -3.706 9.709 
H 5.4846 -2.1901 9.228 
H 7.0902 -2.5874 8.5793 
H 6.17 -5.2808 6.2298 
H 6.9993 -5.3284 7.8087 
H 7.3873 -4.0506 6.6363 
