  13

 O          2.8987600000       -0.4400200000       -1.2268600000
 C          2.4711300000        0.0549700000        0.0349600000
 C          3.0017900000        1.4635200000        0.2382800000
 C          4.5238000000        1.5082100000        0.2426500000
 O          4.9600000000        2.8452000000        0.4646800000
 H          2.5334600000       -1.3364200000       -1.3211400000
 H          2.8319800000       -0.6184000000        0.8190900000
 H          1.3769800000        0.0591100000        0.0508000000
 H          2.6190800000        1.8761000000        1.1791600000
 H          2.6336600000        2.1199300000       -0.5604800000
 H          4.9467700000        1.1604400000       -0.7052000000
 H          4.9280000000        0.8858500000        1.0474900000
 H          4.6652100000        3.3696900000       -0.3000000000
