14

C          0.93774       -0.05364       -0.07585
C          2.46487       -0.03018       -0.07147
C          2.98516        0.88858       -1.17503
C          2.98514        0.42718        1.28972
H          0.55613       -0.40132       -1.04154
H          0.52632        0.94415        0.11094
H          0.55613       -0.72709        0.69867
H          2.83040       -1.04631       -0.26174
H          2.64375        1.91859       -1.02582
H          2.63444        0.55511       -2.15729
H          4.07999        0.89458       -1.19314
H          2.64374        1.44140        1.52321
H          4.07999        0.42622        1.30879
H          2.63443       -0.23904        2.08485
