44

N 2.0524 -1.1215 -0.2453 
C 0.7928 -0.7644 -0.8964 
C -0.1238 0.0712 0.0157 
C 0.7148 1.0046 0.9133 
O 1.7683 1.6184 0.2361 
C -1.0444 0.8879 -0.9075 
O -2.232 1.3248 -0.2797 
C -0.9826 -0.8326 0.9217 
O -2.0189 -1.482 0.242 
H 2.6536 -1.6393 -0.8851 
H 1.8932 -1.7227 0.5639 
H 0.2101 -1.6368 -1.2566 
H 1.0548 -0.1628 -1.7848 
H 1.0789 0.4329 1.7941 
H 0.07 1.8074 1.3185 
H 2.369 0.8795 0.0112 
H -1.3773 0.2597 -1.7496 
H -0.4698 1.7364 -1.3275 
H -2.0155 1.9855 0.3917 
H -1.3752 -0.2302 1.7672 
H -0.3517 -1.6214 1.3696 
H -2.6659 -0.7967 0.0094 
N -6.8816 -5.2233 -5.199 
C -5.6095 -5.3654 -4.4921 
C -5.6022 -4.6267 -3.1414 
C -6.999 -4.6829 -2.4886 
O -7.6049 -5.9348 -2.5932 
C -4.5597 -5.3304 -2.2556 
O -4.0802 -4.526 -1.198 
C -5.2065 -3.1475 -3.317 
O -3.8457 -2.9611 -3.5838 
H -6.8706 -5.7541 -6.069 
H -7.0599 -4.2497 -5.4479 
H -4.7311 -5.0187 -5.074 
H -5.4683 -6.4452 -4.3079 
H -7.6384 -3.8864 -2.9267 
H -6.9147 -4.4455 -1.4111 
H -7.7711 -6.0392 -3.5518 
H -3.6695 -5.5785 -2.856 
H -4.989 -6.2806 -1.8823 
H -4.7909 -4.3783 -0.5598 
H -5.5186 -2.5793 -2.4161 
H -5.7608 -2.7101 -4.1668 
H -3.3736 -3.1755 -2.7631 
