44

C 1.9619 -0.7395 -0.702 
C 0.6167 -0.0787 -1.0015 
C -0.2242 0.3636 0.215 
C 0.4525 1.5102 0.9733 
C -1.5997 0.8573 -0.2887 
O -2.3097 -0.087 -1.0381 
C -0.4395 -0.7969 1.2044 
O -1.0876 -1.922 0.6379 
H 2.4986 -0.9568 -1.6409 
H 1.8511 -1.6996 -0.1655 
H 2.6162 -0.095 -0.0903 
H -0.0 -0.7514 -1.6226 
H 0.7866 0.8134 -1.6321 
H 0.6414 2.3661 0.3016 
H 1.4198 1.2032 1.4072 
H -0.1828 1.8686 1.8036 
H -1.4534 1.7371 -0.9404 
H -2.1895 1.2006 0.5908 
H -2.2929 -0.9199 -0.5357 
H -1.0977 -0.4605 2.0232 
H 0.5221 -1.0949 1.6669 
H -0.482 -2.3596 0.0237 
C 5.0446 -3.5828 -5.4995 
C 3.9219 -2.5526 -5.3798 
C 2.6836 -2.7699 -6.2754 
C 1.9116 -4.0277 -5.8637 
C 1.7451 -1.5508 -6.1246 
O 2.3434 -0.324 -6.4317 
C 3.0776 -2.9192 -7.7567 
O 3.7787 -1.805 -8.2799 
H 5.8455 -3.3616 -4.774 
H 5.5106 -3.5855 -6.5019 
H 4.6922 -4.609 -5.2983 
H 4.3195 -1.542 -5.5778 
H 3.5739 -2.5202 -4.3309 
H 1.6162 -3.9755 -4.8009 
H 2.5121 -4.9434 -6.0014 
H 0.9903 -4.1439 -6.4631 
H 1.4012 -1.4847 -5.077 
H 0.8421 -1.7275 -6.7511 
H 2.7958 -0.4339 -7.2858 
H 2.1646 -3.0057 -8.3698 
H 3.6577 -3.8504 -7.9112 
H 4.6642 -1.7781 -7.8917 
