  36

 C          0.3024000000        1.5241000000       -0.5507000000
 C          0.0914000000        0.1179000000        0.0186000000
 C          0.1104000000        0.1581000000        1.5517000000
 C         -1.2860000000       -0.3941000000       -0.4667000000
 O         -1.6158000000       -1.6830000000       -0.0211000000
 C          1.1298000000       -0.8684000000       -0.5285000000
 Br         2.9735000000       -0.5038000000       -0.0031000000
 H          1.2871000000        1.9245000000       -0.2568000000
 H         -0.4718000000        2.2177000000       -0.1776000000
 H          0.2536000000        1.5205000000       -1.6546000000
 H          0.0191000000       -0.8533000000        1.9869000000
 H         -0.7197000000        0.7809000000        1.9325000000
 H          1.0541000000        0.5874000000        1.9264000000
 H         -1.2931000000       -0.4431000000       -1.5690000000
 H         -2.0580000000        0.3463000000       -0.1693000000
 H         -1.8083000000       -1.6518000000        0.9250000000
 H          1.1330000000       -0.8603000000       -1.6288000000
 H          0.9100000000       -1.8883000000       -0.1848000000
 C          4.8844000000       -4.3191000000       -3.1068000000
 C          3.3974000000       -4.6564000000       -2.9624000000
 C          2.5796000000       -3.9153000000       -4.0275000000
 C          3.2312000000       -6.1829000000       -3.1545000000
 O          1.9095000000       -6.6410000000       -3.0454000000
 C          2.8884000000       -4.3466000000       -1.5498000000
 Br         2.9131000000       -2.4583000000       -1.0578000000
 H          5.0613000000       -3.2420000000       -2.9489000000
 H          5.2485000000       -4.5789000000       -4.1166000000
 H          5.4941000000       -4.8742000000       -2.3712000000
 H          1.4962000000       -4.0956000000       -3.9077000000
 H          2.8801000000       -4.2395000000       -5.0406000000
 H          2.7353000000       -2.8259000000       -3.9614000000
 H          3.8025000000       -6.7164000000       -2.3758000000
 H          3.6762000000       -6.4620000000       -4.1327000000
 H          1.4087000000       -6.3515000000       -3.8190000000
 H          3.5062000000       -4.8533000000       -0.7933000000
 H          1.8478000000       -4.6789000000       -1.4344000000
