44

N       -2.965397   -2.479389    0.417505 
C       -3.710545   -1.295001   -0.029974 
C       -2.839999   -0.026941   -0.074712 
C       -1.649756   -0.231064   -1.026671 
O       -0.792043   -1.266280   -0.597901 
C       -3.716159    1.126471   -0.609091 
O       -3.013271    2.315180   -0.805319 
C       -2.348122    0.319206    1.348140 
O       -1.714732    1.567940    1.432987 
H       -3.454147   -3.337598    0.166561 
H       -2.849174   -2.486541    1.431214 
H       -4.611411   -1.104043    0.589972 
H       -4.068445   -1.503530   -1.053381 
H       -1.053525    0.690892   -1.079260 
H       -2.037579   -0.439758   -2.045968 
H       -1.370240   -2.007626   -0.284274 
H       -4.570952    1.265995    0.091236 
H       -4.148164    0.838229   -1.585572 
H       -2.501861    2.456924    0.016464 
H       -1.674675   -0.479172    1.716463 
H       -3.225937    0.353217    2.021639 
H       -0.763489    1.476071    1.175971 
N        2.965387    2.479386   -0.417528 
C        3.710542    1.295004    0.029955 
C        2.839998    0.026942    0.074708 
C        1.649764    0.231068    1.026678 
O        0.792048    1.266288    0.597921 
C        2.348109   -0.319214   -1.348138 
O        1.714731   -1.567955   -1.432973 
C        3.716166   -1.126466    0.609084 
O        3.013280   -2.315172    0.805334 
H        2.849154    2.486529   -1.431237 
H        3.454138    3.337599   -0.166597 
H        4.068448    1.503541    1.053358 
H        4.611404    1.104043   -0.589996 
H        2.037599    0.439759    2.045972 
H        1.053532   -0.690887    1.079272 
H        1.370244    2.007628    0.284277 
H        3.225917   -0.353217   -2.021647 
H        1.674649    0.479156   -1.716456 
H        0.763487   -1.476087   -1.175958 
H        4.148187   -0.838215    1.585556 
H        4.570947   -1.265996   -0.091256 
H        2.501866   -2.456928   -0.016443 
