  34

 O          0.0207000000        1.6318000000       -0.5809000000
 C          0.2372000000        1.1418000000        0.7370000000
 C          0.0343000000       -0.3684000000        0.7358000000
 C         -1.4315000000       -0.7477000000        0.4843000000
 O         -1.8838000000       -0.3950000000       -0.7951000000
 C          0.9589000000       -1.0585000000       -0.2831000000
 O          2.2648000000       -0.5365000000       -0.2980000000
 H          0.0745000000        2.5962000000       -0.5816000000
 H         -0.4695000000        1.6118000000        1.4497000000
 H          1.2657000000        1.3751000000        1.0695000000
 H          0.3043000000       -0.7105000000        1.7519000000
 H         -2.0597000000       -0.2855000000        1.2772000000
 H         -1.5534000000       -1.8414000000        0.5792000000
 H         -1.5064000000        0.4744000000       -1.0110000000
 H          0.4925000000       -1.0039000000       -1.2830000000
 H          1.0456000000       -2.1267000000       -0.0231000000
 H          2.2502000000        0.2757000000       -0.8221000000
 O          0.5053000000       -4.8831000000       -5.3046000000
 C          1.8182000000       -4.4186000000       -5.5952000000
 C          2.7660000000       -4.9269000000       -4.5158000000
 C          2.4841000000       -4.2755000000       -3.1550000000
 O          1.2324000000       -4.6187000000       -2.6246000000
 C          2.7205000000       -6.4616000000       -4.4059000000
 O          2.6802000000       -7.1117000000       -5.6524000000
 H         -0.1193000000       -4.5093000000       -5.9396000000
 H          1.8439000000       -3.3109000000       -5.6217000000
 H          2.1486000000       -4.7930000000       -6.5819000000
 H          3.7795000000       -4.6217000000       -4.8353000000
 H          2.5909000000       -3.1733000000       -3.2592000000
 H          3.2446000000       -4.6009000000       -2.4231000000
 H          0.5957000000       -4.6323000000       -3.3590000000
 H          1.8611000000       -6.7492000000       -3.7742000000
 H          3.6319000000       -6.8118000000       -3.8931000000
 H          1.7675000000       -7.0813000000       -5.9698000000
