40

C 2.1733 0.0543 0.0 
C 0.8641 0.8415 0.0 
C -0.4452 0.0191 0.0 
C -0.5347 -0.8632 1.2539 
C -1.6239 1.0044 0.0 
C -0.5347 -0.8631 -1.254 
H 3.0343 0.7445 0.0 
H 2.269 -0.5885 -0.8918 
H 2.269 -0.5886 0.8918 
H 0.85 1.5085 -0.8831 
H 0.85 1.5085 0.8831 
H -0.4394 -0.2577 2.1738 
H 0.2551 -1.6341 1.2716 
H -1.507 -1.3866 1.2943 
H -1.5986 1.6552 0.8928 
H -2.5903 0.4687 0.0 
H -1.5987 1.6552 -0.8927 
H 0.2551 -1.634 -1.2717 
H -0.4395 -0.2576 -2.1738 
H -1.507 -1.3865 -1.2944 
C -1.7582 3.0988 -4.7071 
C -2.9652 3.8466 -4.1434 
C -4.2115 3.0 -3.7962 
C -3.8784 1.9551 -2.7211 
C -5.2913 3.9472 -3.2515 
C -4.7553 2.2926 -5.0463 
H -0.935 3.8035 -4.9153 
H -1.9961 2.5844 -5.6539 
H -1.3725 2.3443 -4.0002 
H -3.2709 4.6258 -4.8675 
H -2.6533 4.3882 -3.2299 
H -3.4527 2.4334 -1.82 
H -3.1513 1.2083 -3.0845 
H -4.7876 1.4074 -2.414 
H -4.9396 4.4724 -2.345 
H -6.2095 3.393 -2.9856 
H -5.564 4.7127 -4.0004 
H -4.0406 1.5506 -5.4426 
H -4.973 3.0185 -5.8509 
H -5.6928 1.7558 -4.8142 
