19

O          2.53539       -1.19463        0.74702
C          2.39662       -0.04546       -0.09606
C          2.94300        1.23545        0.56035
C          2.53456        2.47171       -0.25989
O          2.97758        2.40455       -1.61337
C          2.48174        1.38360        2.01852
O          2.89583        0.32470        2.87916
N          4.46425        1.22090        0.56984
O          5.05506        0.23740        0.10007
O          5.03205        2.23955        0.98788
H          2.41718       -1.97932        0.17723
H          1.31906        0.06469       -0.26783
H          2.86080       -0.25572       -1.06631
H          2.89319        3.41120        0.17742
H          1.44139        2.54034       -0.29735
H          3.85458        2.83736       -1.66911
H          1.38571        1.41712        2.05690
H          2.83795        2.31995        2.46250
H          2.81485       -0.51868        2.37998
