17

C        0.966853   -0.783196   -1.262562 
C        0.551528   -0.004956   -0.000002 
C        0.966804   -0.782879    1.262773 
C        1.215651    1.373934   -0.000163 
C       -0.975374    0.189050   -0.000021 
O       -1.712009   -0.941234   -0.000011 
O       -1.522113    1.252902   -0.000025 
H        2.065930   -0.878236   -1.298518 
H        0.639116   -0.260573   -2.177465 
H        0.552250   -1.807282   -1.290652 
H        2.065874   -0.878001    1.298746 
H        0.552094   -1.806912    1.291150 
H        0.639116   -0.259966    2.177527 
H        2.314102    1.263707   -0.000107 
H        0.920180    1.955329    0.887907 
H        0.920250    1.955090   -0.888416 
H       -1.148707   -1.728218   -0.000029 
