28

C -1.4366 -0.5759 0.0499 
C -0.1023 0.0685 -0.3182 
N 0.0561 1.4494 0.1398 
C 1.0998 -0.7149 0.2204 
O 2.2892 -0.0596 -0.0921 
H -1.5632 -0.6141 1.1479 
H -1.5038 -1.6094 -0.3339 
H -2.2811 -0.0023 -0.3702 
H -0.0004 0.0938 -1.4177 
H -0.5051 2.1003 -0.4067 
H -0.2241 1.5437 1.1179 
H 1.1286 -1.7256 -0.2224 
H 0.975 -0.8428 1.3217 
H 2.0701 0.8885 -0.0144 
C -0.8938 -2.5419 -3.078 
C -1.2399 -3.7661 -3.9221 
N -2.0707 -3.4852 -5.0937 
C 0.004 -4.5031 -4.4306 
O -0.3616 -5.5769 -5.2399 
H -0.3231 -1.8047 -3.673 
H -0.2794 -2.8174 -2.2025 
H -1.8082 -2.046 -2.7084 
H -1.8077 -4.4856 -3.3058 
H -3.0358 -3.2835 -4.8386 
H -1.7118 -2.6803 -5.6108 
H 0.5955 -4.888 -3.5819 
H 0.6492 -3.7747 -4.9764 
H -1.1459 -5.2574 -5.7253 
