  40

 C         -0.0815000000       -0.1808000000        1.5741000000
 C         -0.0854000000       -0.1380000000        0.0418000000
 C          0.9401000000       -1.1495000000       -0.5099000000
 O          2.2395000000       -0.9457000000       -0.0347000000
 C         -1.4752000000       -0.5113000000       -0.5011000000
 O         -2.5061000000        0.3397000000       -0.0668000000
 C          0.2603000000        1.2765000000       -0.4580000000
 O          1.5395000000        1.7284000000       -0.0455000000
 H         -0.4527000000       -1.1553000000        1.9408000000
 H         -0.7126000000        0.6166000000        2.0088000000
 H          0.9420000000       -0.0676000000        1.9669000000
 H          0.9051000000       -1.1154000000       -1.6218000000
 H          0.6479000000       -2.1726000000       -0.2109000000
 H          2.4322000000        0.0037000000       -0.1318000000
 H         -1.6919000000       -1.5688000000       -0.2411000000
 H         -1.4746000000       -0.4442000000       -1.6028000000
 H         -2.6707000000        0.1794000000        0.8715000000
 H         -0.5302000000        1.9845000000       -0.1472000000
 H          0.2884000000        1.2790000000       -1.5608000000
 H          1.5049000000        1.9722000000        0.8892000000
 C         -0.7763000000       -1.9006000000       -6.3426000000
 C          0.7416000000       -1.7145000000       -6.2373000000
 C          1.2324000000       -0.7888000000       -7.3694000000
 O          0.8997000000       -1.2440000000       -8.6492000000
 C          1.1102000000       -1.0705000000       -4.8901000000
 O          0.7128000000       -1.8208000000       -3.7700000000
 C          1.4583000000       -3.0738000000       -6.3309000000
 O          1.2199000000       -3.7595000000       -7.5489000000
 H         -1.3033000000       -0.9485000000       -6.1484000000
 H         -1.1483000000       -2.6555000000       -5.6251000000
 H         -1.0632000000       -2.2155000000       -7.3591000000
 H          2.3316000000       -0.6522000000       -7.2608000000
 H          0.7722000000        0.2096000000       -7.2563000000
 H          1.1422000000       -2.1861000000       -8.6880000000
 H          0.6901000000       -0.0433000000       -4.8543000000
 H          2.2069000000       -0.9727000000       -4.8122000000
 H         -0.2491000000       -1.7798000000       -3.6903000000
 H          1.1830000000       -3.7001000000       -5.4621000000
 H          2.5494000000       -2.9165000000       -6.2899000000
 H          0.3280000000       -4.1319000000       -7.5354000000
