36

C       -3.224187   -0.767112   -1.023240 
C       -2.658170    0.277710   -0.051365 
C       -1.623658    1.150085   -0.775481 
C       -3.794004    1.158296    0.485557 
C       -2.014680   -0.431978    1.154628 
O       -1.048634   -1.410273    0.819547 
H       -3.777578   -0.276833   -1.842969 
H       -3.925683   -1.455676   -0.514650 
H       -2.418474   -1.361668   -1.489865 
H       -2.078216    1.641435   -1.654273 
H       -0.762811    0.556538   -1.126024 
H       -1.241908    1.943855   -0.107962 
H       -4.583334    0.553889    0.968487 
H       -4.262291    1.731354   -0.333750 
H       -3.418394    1.884424    1.229328 
H       -2.806568   -0.894363    1.777493 
H       -1.488149    0.303264    1.785507 
H       -1.490985   -2.179607    0.435497 
C        1.763079    0.589215    1.243998 
C        2.702228    0.231790    0.084428 
C        2.664282    1.345251   -0.969101 
C        4.131116    0.058137    0.612577 
C        2.262544   -1.102631   -0.552471 
O        0.963169   -1.103628   -1.070858 
H        2.109518    1.500749    1.763609 
H        1.710396   -0.228277    1.986194 
H        0.740115    0.782453    0.879908 
H        2.955067    2.316110   -0.528055 
H        1.651995    1.447706   -1.395062 
H        3.360081    1.128404   -1.799936 
H        4.825415   -0.227513   -0.198705 
H        4.179524   -0.724701    1.391511 
H        4.503673    0.998179    1.057427 
H        2.389840   -1.911963    0.199442 
H        2.940376   -1.335242   -1.393981 
H        0.320812   -1.133899   -0.335853 
