  36

 C         -0.1684000000        1.4781000000       -0.2217000000
 C         -0.1580000000       -0.0401000000        0.0059000000
 C         -0.2293000000       -0.3386000000        1.5082000000
 C         -1.3513000000       -0.6753000000       -0.7172000000
 C          1.1339000000       -0.6460000000       -0.5774000000
 O          2.3172000000       -0.1595000000        0.0023000000
 H         -1.1129000000        1.9233000000        0.1373000000
 H         -0.0691000000        1.7243000000       -1.2956000000
 H          0.6511000000        1.9767000000        0.3272000000
 H         -1.1226000000        0.1262000000        1.9628000000
 H          0.6665000000        0.0465000000        2.0234000000
 H         -0.2817000000       -1.4267000000        1.6924000000
 H         -2.3048000000       -0.2880000000       -0.3164000000
 H         -1.3558000000       -1.7733000000       -0.5915000000
 H         -1.3292000000       -0.4581000000       -1.8007000000
 H          1.1386000000       -0.4974000000       -1.6790000000
 H          1.1369000000       -1.7349000000       -0.3974000000
 H          2.4386000000        0.7621000000       -0.2599000000
 C          1.0526000000       -2.9602000000        4.0490000000
 C          1.0940000000       -4.4565000000        3.7084000000
 C          0.3202000000       -5.2500000000        4.7680000000
 C          0.4790000000       -4.6843000000        2.3227000000
 C          2.5565000000       -4.9422000000        3.6695000000
 O          3.2478000000       -4.8024000000        4.8842000000
 H          0.0164000000       -2.5796000000        4.0244000000
 H          1.6444000000       -2.3669000000        3.3268000000
 H          1.4433000000       -2.7637000000        5.0640000000
 H         -0.7207000000       -4.8892000000        4.8517000000
 H          0.8043000000       -5.1550000000        5.7543000000
 H          0.2877000000       -6.3240000000        4.5112000000
 H         -0.5801000000       -4.3714000000        2.3069000000
 H          0.5177000000       -5.7519000000        2.0394000000
 H          1.0115000000       -4.1075000000        1.5447000000
 H          3.0895000000       -4.4214000000        2.8446000000
 H          2.5741000000       -6.0208000000        3.4364000000
 H          3.3943000000       -3.8631000000        5.0550000000
