21

O          2.79597        1.19781        0.12736
C          2.32987       -0.13184       -0.09722
C          2.88425       -1.09498        0.98037
C          2.40528       -0.64862        2.37930
O          0.97899       -0.64474        2.45292
C          2.35810       -2.52244        0.70617
O          2.93827       -3.12321       -0.44928
C          4.42802       -1.09916        0.95890
O          4.98452        0.17138        1.28345
H          2.36482        1.76884       -0.54242
H          2.65499       -0.42366       -1.09758
H          1.23602       -0.11522       -0.08885
H          2.76482        0.35189        2.64558
H          2.76910       -1.33755        3.14507
H          0.68929        0.26587        2.26344
H          1.27153       -2.53380        0.58717
H          2.59949       -3.18334        1.54737
H          2.96868       -2.48567       -1.17842
H          4.81125       -1.38209       -0.02685
H          4.82240       -1.82115        1.68361
H          4.44749        0.84639        0.81776
