  22

 C          0.0000000000        0.3049000000       -1.2713000000
 C          0.0000000000       -0.5264000000        0.0000000000
 C          0.0000000000        0.3049000000        1.2713000000
 Cl        -1.4653000000       -1.5855000000        0.0000000000
 Cl         1.4653000000       -1.5855000000        0.0000000000
 H         -0.8982000000        0.9443000000       -1.2956000000
 H          0.0000000000       -0.3449000000       -2.1598000000
 H          0.8982000000        0.9443000000       -1.2956000000
 H         -0.8982000000        0.9443000000        1.2956000000
 H          0.8982000000        0.9443000000        1.2956000000
 H          0.0000000000       -0.3449000000        2.1598000000
 C          0.5766000000       -4.6760000000        0.2377000000
 C          1.3334000000       -5.9158000000       -0.2066000000
 C          2.8124000000       -5.8827000000        0.1381000000
 Cl         0.5874000000       -7.3631000000        0.5793000000
 Cl         1.1595000000       -6.0902000000       -1.9977000000
 H          0.6576000000       -4.5651000000        1.3319000000
 H         -0.4869000000       -4.7519000000       -0.0359000000
 H          1.0083000000       -3.7849000000       -0.2477000000
 H          2.9361000000       -5.7948000000        1.2304000000
 H          3.2868000000       -5.0146000000       -0.3492000000
 H          3.3115000000       -6.8019000000       -0.2051000000
