21

C          2.90237        0.68357        1.28068
C          2.50064        0.05025       -0.04975
O          2.86460        0.95967       -1.09367
C          3.08695       -1.36708       -0.32655
C          2.59986       -2.36920        0.73676
C          2.60063       -1.85765       -1.70745
C          4.62674       -1.36880       -0.33748
H          2.45740        1.68096        1.36899
H          3.98501        0.82815        1.34866
H          2.56887        0.08956        2.13527
H          1.40548       -0.01248       -0.07301
H          3.81459        1.14611       -1.01473
H          1.50477       -2.40454        0.77367
H          2.96465       -2.11321        1.73615
H          2.95623       -3.38264        0.51350
H          1.50742       -1.90929       -1.74281
H          2.98680       -2.85796       -1.92960
H          2.93066       -1.19302       -2.51175
H          5.03893       -1.07690        0.63415
H          5.02859       -0.68647       -1.09517
H          5.01583       -2.36768       -0.56377
