  21

 C          2.9023700000        0.6835700000        1.2806800000
 C          2.5006400000        0.0502500000       -0.0497500000
 O          2.8646000000        0.9596700000       -1.0936700000
 C          3.0869500000       -1.3670800000       -0.3265500000
 C          2.5998600000       -2.3692000000        0.7367600000
 C          2.6006300000       -1.8576500000       -1.7074500000
 C          4.6267400000       -1.3688000000       -0.3374800000
 H          2.4574000000        1.6809600000        1.3689900000
 H          3.9850100000        0.8281500000        1.3486600000
 H          2.5688700000        0.0895600000        2.1352700000
 H          1.4054800000       -0.0124800000       -0.0730100000
 H          3.8145900000        1.1461100000       -1.0147300000
 H          1.5047700000       -2.4045400000        0.7736700000
 H          2.9646500000       -2.1132100000        1.7361500000
 H          2.9562300000       -3.3826400000        0.5135000000
 H          1.5074200000       -1.9092900000       -1.7428100000
 H          2.9868000000       -2.8579600000       -1.9296000000
 H          2.9306600000       -1.1930200000       -2.5117500000
 H          5.0389300000       -1.0769000000        0.6341500000
 H          5.0285900000       -0.6864700000       -1.0951700000
 H          5.0158300000       -2.3676800000       -0.5637700000
