8

C          1.10229       -0.02367        0.04524
C          2.62481       -0.02363        0.04537
Cl         3.22680        1.62249       -0.29339
Cl         3.22682       -0.55324        1.64035
Cl         3.22675       -1.14008       -1.21078
H          0.70156        0.65447        0.80832
H          0.70148       -1.02310        0.25116
H          0.70146        0.29800       -0.92297
