40

C -0.0815 -0.1808 1.5741 
C -0.0854 -0.138 0.0418 
C 0.9401 -1.1495 -0.5099 
O 2.2395 -0.9457 -0.0347 
C -1.4752 -0.5113 -0.5011 
O -2.5061 0.3397 -0.0668 
C 0.2603 1.2765 -0.458 
O 1.5395 1.7284 -0.0455 
H -0.4527 -1.1553 1.9408 
H -0.7126 0.6166 2.0088 
H 0.942 -0.0676 1.9669 
H 0.9051 -1.1154 -1.6218 
H 0.6479 -2.1726 -0.2109 
H 2.4322 0.0037 -0.1318 
H -1.6919 -1.5688 -0.2411 
H -1.4746 -0.4442 -1.6028 
H -2.6707 0.1794 0.8715 
H -0.5302 1.9845 -0.1472 
H 0.2884 1.279 -1.5608 
H 1.5049 1.9722 0.8892 
C -0.7763 -1.9006 -6.3426 
C 0.7416 -1.7145 -6.2373 
C 1.2324 -0.7888 -7.3694 
O 0.8997 -1.244 -8.6492 
C 1.1102 -1.0705 -4.8901 
O 0.7128 -1.8208 -3.77 
C 1.4583 -3.0738 -6.3309 
O 1.2199 -3.7595 -7.5489 
H -1.3033 -0.9485 -6.1484 
H -1.1483 -2.6555 -5.6251 
H -1.0632 -2.2155 -7.3591 
H 2.3316 -0.6522 -7.2608 
H 0.7722 0.2096 -7.2563 
H 1.1422 -2.1861 -8.688 
H 0.6901 -0.0433 -4.8543 
H 2.2069 -0.9727 -4.8122 
H -0.2491 -1.7798 -3.6903 
H 1.183 -3.7001 -5.4621 
H 2.5494 -2.9165 -6.2899 
H 0.328 -4.1319 -7.5354 
