32

C        2.632826    0.322448    1.551272 
C        2.516080    0.242845    0.031224 
C        2.103191    1.580472   -0.570802 
C        3.799818   -0.298101   -0.606971 
N        1.438888   -0.799170   -0.301085 
O        0.697537   -0.576581   -1.234242 
O        1.420669   -1.813344    0.356784 
H        1.678853    0.650260    1.993552 
H        3.412233    1.059829    1.806390 
H        2.911477   -0.650626    1.982039 
H        2.864054    2.332378   -0.301313 
H        1.128775    1.909847   -0.176284 
H        2.034993    1.527875   -1.667555 
H        4.623368    0.408683   -0.412401 
H        3.683082   -0.401838   -1.699052 
H        4.069530   -1.277870   -0.179951 
C       -2.103114   -1.580571    0.570429 
C       -2.516087   -0.242820   -0.031274 
C       -2.633021   -0.322111   -1.551321 
C       -3.799750    0.297983    0.607193 
N       -1.438867    0.799130    0.301142 
O       -0.697708    0.576530    1.234449 
O       -1.420453    1.813271   -0.356770 
H       -1.128725   -1.909832    0.175749 
H       -2.863982   -2.332438    0.300847 
H       -2.034821   -1.528205    1.667186 
H       -1.679091   -0.649788   -1.993793 
H       -2.911765    0.651039   -1.981855 
H       -3.412427   -1.059474   -1.806494 
H       -3.682880    0.401485    1.699281 
H       -4.623322   -0.408761    0.412569 
H       -4.069522    1.277842    0.180416 
