40

O 2.3282 0.1183 -0.4204 
C 1.1505 0.7469 -0.913 
C -0.0891 -0.0031 -0.4203 
C -1.3409 0.7401 -0.9246 
O -1.4844 2.0046 -0.3396 
C -0.0904 -1.463 -0.9396 
O -1.258 -2.1632 -0.6249 
C -0.1662 -0.0713 1.1155 
O 0.975 -0.2272 1.7707 
O -1.2245 -0.0545 1.6963 
H 3.1026 0.6629 -0.6144 
H 1.156 0.7381 -2.0191 
H 1.0871 1.7969 -0.5742 
H -2.222 0.1005 -0.7532 
H -1.2486 0.8952 -2.0137 
H -1.8151 1.8673 0.5611 
H 0.8161 -1.9822 -0.5705 
H -0.0292 -1.4404 -2.0416 
H -1.4323 -2.1046 0.3268 
H 1.7325 -0.1959 1.1365 
O 2.1625 -6.3241 4.8535 
C 2.2118 -5.8374 3.5173 
C 1.0338 -4.8955 3.2587 
C 1.1551 -4.3455 1.8247 
O 2.2678 -3.5099 1.6644 
C -0.3137 -5.6407 3.4318 
O -1.4248 -4.8656 3.0894 
C 1.013 -3.6972 4.2247 
O 1.3842 -3.9245 5.4763 
O 0.61 -2.6132 3.878 
H 2.9728 -6.8077 5.0621 
H 2.1532 -6.6842 2.8079 
H 3.1522 -5.289 3.3268 
H 0.2128 -3.8376 1.5624 
H 1.2824 -5.1922 1.1279 
H 2.0472 -2.6584 2.0715 
H -0.3842 -6.0314 4.4661 
H -0.3202 -6.5104 2.7518 
H -1.3996 -4.0225 3.567 
H 1.7014 -4.8562 5.5678 
