34

C       -2.740140    2.376408    0.014790
C       -2.633135    0.898460    0.433852
C       -1.749167    0.792505    1.682422
C       -4.033315    0.344773    0.723791
C       -1.991880    0.179620   -0.759738
Br       -1.688640   -1.740068   -0.516848
H       -1.744115    2.805419   -0.193787
H       -3.202145    2.968857    0.823845
H       -3.364163    2.496443   -0.888997
H       -1.667372   -0.251558    2.029502
H       -2.178268    1.390825    2.505442
H       -0.730616    1.167643    1.479605
H       -3.990622   -0.716364    1.023299
H       -4.686184    0.423113   -0.164338
H       -4.507530    0.911268    1.544377
H       -1.003582    0.606912   -0.985101
H       -2.627205    0.254236   -1.654876
C        2.740144   -2.376407    0.014788
C        2.633135   -0.898460    0.433852
C        1.749164   -0.792510    1.682420
C        4.033313   -0.344770    0.723794
C        1.991880   -0.179620   -0.759738
Br        1.688640    1.740069   -0.516848
H        3.364171   -2.496439   -0.888997
H        1.744121   -2.805420   -0.193794
H        3.202147   -2.968857    0.823844
H        2.178269   -1.390823    2.505443
H        0.730617   -1.167657    1.479603
H        1.667359    0.251554    2.029498
H        4.686183   -0.423104   -0.164334
H        4.507529   -0.911267    1.544378
H        3.990616    0.716365    1.023307
H        1.003582   -0.606911   -0.985102
H        2.627206   -0.254236   -1.654876
