14

C          0.92744        0.06340        0.06803
C          2.45373        0.01878        0.07066
C          2.98392       -0.58360        1.36984
C          2.98343       -0.74040       -1.14351
Br         3.11089        1.87459       -0.04508
H          0.50730       -0.94677        0.13080
H          0.53934        0.52747       -0.84601
H          0.53924        0.63719        0.91766
H          2.64664       -1.61980        1.48568
H          2.63665       -0.02244        2.24551
H          4.08012       -0.58678        1.39573
H          2.64630       -1.78288       -1.12947
H          4.07922       -0.74668       -1.16857
H          2.63627       -0.29247       -2.08183
