13

C       -1.788012   -0.564637    0.024178
C       -0.438823    0.027861   -0.348507
O       -0.323304    1.385719    0.053676
C        0.747016   -0.749387    0.220358
O        1.949634   -0.118146   -0.103708
H       -2.603825    0.044264   -0.398628
H       -1.913505   -0.598459    1.123018
H       -1.887701   -1.595391   -0.356793
H       -0.331404    0.056944   -1.445383
H       -0.563477    1.447439    0.990103
H        0.775091   -1.772861   -0.190821
H        0.614192   -0.840079    1.324339
H        1.778899    0.834536   -0.021745
