34

C -0.4312 -0.8492 1.5287 
C -0.0137 -0.0024 0.3178 
C 0.4059 -0.8874 -0.8653 
Cl 1.7916 -1.9676 -0.493 
C -1.1735 0.9023 -0.1356 
Cl -2.6461 0.0043 -0.6379 
C 1.1428 0.9004 0.7768 
Cl 1.7595 2.017 -0.4916 
H -1.2665 -1.5167 1.2619 
H -0.7637 -0.2043 2.3609 
H 0.4074 -1.4708 1.8809 
H 0.7144 -0.2694 -1.721 
H -0.4284 -1.5338 -1.1705 
H -0.8765 1.5247 -0.9912 
H -1.4779 1.5639 0.69 
H 1.9969 0.2823 1.0879 
H 0.8285 1.5298 1.623 
C 3.5001 -1.8615 2.5974 
C 4.0166 -0.9849 3.7473 
C 5.2179 -1.635 4.4497 
Cl 4.8467 -3.2432 5.1579 
C 4.4459 0.3973 3.2235 
Cl 5.767 0.3388 2.0076 
C 2.8442 -0.782 4.7207 
Cl 3.2264 0.2641 6.1333 
H 4.299 -2.0379 1.8591 
H 2.6594 -1.3693 2.0777 
H 3.156 -2.8385 2.9725 
H 5.5701 -1.0039 5.2785 
H 6.04 -1.7837 3.7362 
H 4.8003 1.0369 4.0437 
H 3.5937 0.8943 2.7347 
H 2.5275 -1.752 5.1297 
H 1.9916 -0.3144 4.2056 
