  22

 C          0.9618600000        0.1301200000       -0.1048600000
 C          2.4743300000       -0.0593000000       -0.0614100000
 C          2.9690400000       -1.4883900000        0.3086900000
 C          2.4761500000       -1.8818400000        1.7154700000
 C          2.4724800000       -2.5508100000       -0.6969700000
 O          2.9614700000       -2.3066400000       -2.0128900000
 C          4.5216200000       -1.4808600000        0.3357900000
 O          5.0876100000       -1.1196700000       -0.9168500000
 H          0.7270000000        1.1733700000       -0.3419500000
 H          0.4946800000       -0.0960200000        0.8576100000
 H          0.4981300000       -0.4926600000       -0.8747100000
 H          2.8813200000        0.6573100000        0.6644300000
 H          2.8780100000        0.2397300000       -1.0363200000
 H          1.3852200000       -1.9584300000        1.7587800000
 H          2.7946600000       -1.1496800000        2.4653000000
 H          2.8785600000       -2.8571800000        2.0128500000
 H          1.3798500000       -2.6060200000       -0.7362300000
 H          2.8301700000       -3.5446100000       -0.4040900000
 H          2.4755700000       -1.5383000000       -2.3651600000
 H          4.9133000000       -2.4674400000        0.6093500000
 H          4.8907200000       -0.7659700000        1.0790200000
 H          4.6758200000       -1.7070800000       -1.5867400000
