  17

 C          1.0263300000        0.0699500000       -0.0326500000
 C          2.5732600000        0.0527200000       -0.0490300000
 C          3.0341000000       -1.3957900000       -0.3400900000
 Cl         4.8071300000       -1.5848200000       -0.3963300000
 C          3.0878500000        1.0499600000       -1.1213700000
 Cl         2.5761300000        0.6687500000       -2.7854500000
 C          3.1102700000        0.5678100000        1.3129200000
 Cl         2.6351400000       -0.4256100000        2.7149900000
 H          0.6054600000       -0.2766900000       -0.9821800000
 H          0.6459300000        1.0810200000        0.1515000000
 H          0.6191100000       -0.5854100000        0.7444400000
 H          2.6486600000       -1.7535900000       -1.2999500000
 H          2.6667300000       -2.0936600000        0.4187400000
 H          4.1813400000        1.1045200000       -1.1305700000
 H          2.7207900000        2.0603600000       -0.9098600000
 H          2.7381800000        1.5790900000        1.5118700000
 H          4.2034800000        0.6238500000        1.3208200000
