  9

 C          0.9395500000        0.0712800000       -0.0254800000
 C          2.4538400000        0.0740000000       -0.0187700000
 O          2.9355200000       -0.1786100000        1.2928200000
 H          0.5547500000        0.2547900000       -1.0324800000
 H          0.5475500000        0.8411900000        0.6471900000
 H          0.5540700000       -0.8896400000        0.3309800000
 H          2.8452600000        1.0382500000       -0.3572500000
 H          2.8408300000       -0.7066000000       -0.6801900000
 H          2.5959400000        0.5257700000        1.8708000000
