  32

 C         -0.4705000000        1.4477000000        0.0000000000
 C          0.0492000000        0.0167000000        0.0000000000
 C         -0.3669000000       -0.7371000000        1.2643000000
 C         -0.3669000000       -0.7371000000       -1.2643000000
 N          1.5855000000        0.0425000000        0.0000000000
 O          2.1458000000        1.1136000000        0.0000000000
 O          2.1442000000       -1.0317000000        0.0000000000
 H         -1.5734000000        1.4211000000        0.0000000000
 H         -0.1339000000        1.9990000000       -0.8915000000
 H         -0.1339000000        1.9990000000        0.8915000000
 H         -1.4672000000       -0.7968000000        1.3050000000
 H         -0.0164000000       -0.2118000000        2.1691000000
 H          0.0444000000       -1.7582000000        1.2653000000
 H         -1.4672000000       -0.7968000000       -1.3050000000
 H          0.0444000000       -1.7582000000       -1.2653000000
 H         -0.0164000000       -0.2118000000       -2.1691000000
 C         -2.5853000000        7.6581000000       -0.9959000000
 C         -2.1981000000        6.2109000000       -0.7247000000
 C         -3.4133000000        5.3595000000       -0.3527000000
 C         -1.4248000000        5.6023000000       -1.8958000000
 N         -1.2530000000        6.1645000000        0.4859000000
 O         -0.9581000000        7.2032000000        1.0294000000
 O         -0.8585000000        5.0703000000        0.8221000000
 H         -3.2634000000        7.6833000000       -1.8658000000
 H         -1.7028000000        8.2760000000       -1.2223000000
 H         -3.1049000000        8.1048000000       -0.1343000000
 H         -4.1202000000        5.3479000000       -1.1989000000
 H         -3.9335000000        5.7785000000        0.5255000000
 H         -3.1128000000        4.3249000000       -0.1268000000
 H         -2.0677000000        5.5985000000       -2.7916000000
 H         -1.1228000000        4.5679000000       -1.6710000000
 H         -0.5220000000        6.1951000000       -2.1219000000
