42

O -0.2821 2.2914 -0.2337 
C 0.1877 1.1454 -0.9007 
C -0.0724 -0.082 -0.0239 
C 0.2787 -1.3715 -0.793 
O 1.6596 -1.4842 -1.1009 
C 0.7686 0.0146 1.2719 
O 2.1334 0.2016 1.0223 
C -1.5564 -0.1198 0.3478 
O -2.3156 -0.2683 -0.7887 
F -1.793 -1.1872 1.1994 
H 0.0851 3.0781 -0.6536 
H 1.2778 1.213 -1.0762 
H -0.3265 1.014 -1.8747 
H -0.3348 -1.4496 -1.7082 
H 0.0379 -2.2386 -0.1598 
H 1.8606 -0.9476 -1.8785 
H 0.5852 -0.8937 1.88 
H 0.4295 0.8835 1.8587 
H 2.4075 -0.5122 0.4214 
H -1.8366 0.7851 0.914 
H -3.2472 -0.1212 -0.5753 
O -1.2253 7.4289 -6.0152 
C -0.2286 6.7797 -6.7663 
C 0.5076 5.7873 -5.8629 
C 1.4943 4.941 -6.6923 
O 2.5495 5.7024 -7.2592 
C 1.2633 6.5548 -4.7513 
O 2.1199 7.5403 -5.2562 
C -0.5168 4.8535 -5.2145 
O -1.154 4.1181 -6.1857 
F 0.129 3.9945 -4.3395 
H -1.5269 8.2104 -6.4931 
H 0.5124 7.5077 -7.1466 
H -0.6705 6.2337 -7.6247 
H 0.9525 4.379 -7.4737 
H 1.974 4.2051 -6.0297 
H 2.2339 6.1447 -8.0578 
H 1.8088 5.8213 -4.1245 
H 0.5323 7.0677 -4.1056 
H 2.6994 7.1018 -5.9025 
H -1.2304 5.4289 -4.6001 
H -1.9113 3.6591 -5.7973 
