38

C -0.8847 1.2632 -1.0914 
C -0.0947 0.2007 -0.3187 
C 1.1432 -0.22 -1.1346 
O 1.9419 -1.1808 -0.4855 
C 0.339 0.7613 1.0577 
O 0.9223 -0.2037 1.8782 
C -0.947 -1.0338 -0.0684 
O -2.1169 -0.7571 0.5083 
O -0.6251 -2.1661 -0.3456 
H -1.2033 0.8881 -2.0793 
H -0.2545 2.155 -1.2545 
H -1.7837 1.5722 -0.5352 
H 1.7794 0.6672 -1.2908 
H 0.8244 -0.5825 -2.1316 
H 1.4111 -1.9963 -0.457 
H -0.5442 1.1514 1.5899 
H 1.0202 1.6199 0.868 
H 1.6219 -0.6358 1.3546 
H -2.5702 -1.6029 0.6747 
C -1.4943 -4.3227 3.1508 
C -1.9184 -5.787 3.3125 
C -0.6983 -6.7057 3.1068 
O -0.9946 -8.0735 3.261 
C -2.5228 -6.01 4.7202 
O -3.0764 -7.28 4.879 
C -2.9789 -6.1609 2.2885 
O -4.0227 -5.3313 2.2854 
O -2.9172 -7.1103 1.5418 
H -1.0567 -4.1385 2.1544 
H -0.7328 -4.0665 3.9081 
H -2.3522 -3.6442 3.2798 
H 0.0603 -6.4584 3.8682 
H -0.2503 -6.5102 2.1128 
H -1.5738 -8.3085 2.5147 
H -3.3292 -5.2786 4.8935 
H -1.721 -5.8046 5.4633 
H -2.3979 -7.922 4.6001 
H -4.6679 -5.6726 1.6406 
