  32

 C         -0.6594000000       -0.5756000000        1.2607000000
 C         -0.2161000000        0.1795000000        0.0000000000
 C         -0.6594000000       -0.5756000000       -1.2607000000
 N         -0.8316000000        1.4942000000        0.0000000000
 C          1.3167000000        0.2889000000        0.0000000000
 O          1.9307000000       -0.9053000000        0.0000000000
 O          1.9323000000        1.3226000000        0.0000000000
 H         -0.3349000000       -0.0433000000        2.1728000000
 H         -0.2390000000       -1.5932000000        1.2869000000
 H         -1.7601000000       -0.6344000000        1.2721000000
 H         -0.3349000000       -0.0433000000       -2.1728000000
 H         -1.7601000000       -0.6344000000       -1.2721000000
 H         -0.2390000000       -1.5932000000       -1.2870000000
 H         -0.5172000000        2.0251000000       -0.8132000000
 H         -0.5172000000        2.0251000000        0.8132000000
 H          2.8895000000       -0.7364000000        0.0000000000
 C         -4.8653000000        3.9995000000       -1.2920000000
 C         -3.6643000000        4.9185000000       -1.0292000000
 C         -2.4775000000        4.5160000000       -1.9155000000
 N         -4.0417000000        6.2847000000       -1.3428000000
 C         -3.2507000000        4.7858000000        0.4448000000
 O         -2.8925000000        3.5363000000        0.7817000000
 O         -3.2386000000        5.6889000000        1.2396000000
 H         -5.7208000000        4.2765000000       -0.6501000000
 H         -4.6138000000        2.9454000000       -1.0958000000
 H         -5.1762000000        4.1115000000       -2.3436000000
 H         -1.6053000000        5.1668000000       -1.7246000000
 H         -2.7668000000        4.6328000000       -2.9727000000
 H         -2.1762000000        3.4727000000       -1.7323000000
 H         -3.2659000000        6.9154000000       -1.1373000000
 H         -4.8061000000        6.5822000000       -0.7352000000
 H         -2.6494000000        3.5503000000        1.7243000000
